MODEL 1
REMARK VINA RESULT:      -9.2      0.000      0.000
REMARK  Name = H:\Org. chem candidate structure\str-2\Str2-3D.pdb
REMARK  1 active torsions:
REMARK  status: ('A' for Active; 'I' for Inactive)
REMARK    1  A    between atoms: _18  and  _23
REMARK                            x       y       z     vdW  Elec       q    Type
REMARK                         _______ _______ _______ _____ _____    ______ ____
ROOT
ATOM      1  C   UNL     1       6.608   0.428  84.222  0.00  0.00    +0.063 C 
ATOM      2  C   UNL     1       6.695   0.505  82.744  0.00  0.00    +0.111 C 
ATOM      3  N   UNL     1       6.353  -0.621  82.064  0.00  0.00    -0.348 NA
ATOM      4  C   UNL     1       6.358  -0.691  80.710  0.00  0.00    +0.138 C 
ATOM     11  N   UNL     1       6.724   0.398  79.997  0.00  0.00    -0.328 NA
ATOM     12  C   UNL     1       7.106   1.558  80.584  0.00  0.00    +0.192 C 
ATOM     13  N   UNL     1       7.497   2.634  79.835  0.00  0.00    -0.216 N 
ATOM     14  C   UNL     1       7.879   3.806  80.398  0.00  0.00    +0.192 C 
ATOM     15  C   UNL     1       7.900   3.966  81.792  0.00  0.00    +0.045 C 
ATOM     16  C   UNL     1       7.513   2.876  82.592  0.00  0.00    -0.007 C 
ATOM     17  N   UNL     1       8.221   4.725  79.475  0.00  0.00    -0.385 NA
ATOM     18  C   UNL     1       8.059   4.114  78.294  0.00  0.00    +0.146 C 
ATOM     19  C   UNL     1       8.285   4.620  77.004  0.00  0.00    +0.029 C 
ATOM     20  C   UNL     1       8.049   3.771  75.903  0.00  0.00    -0.019 C 
ATOM     21  C   UNL     1       7.598   2.447  76.098  0.00  0.00    +0.053 C 
ATOM     22  C   UNL     1       7.375   1.955  77.399  0.00  0.00    -0.004 C 
ATOM     23  C   UNL     1       7.609   2.806  78.501  0.00  0.00    +0.085 C 
ATOM     24  C   UNL     1       7.107   1.651  82.008  0.00  0.00    +0.139 C 
ENDROOT
BRANCH   4   5
ATOM      5  C   UNL     1       5.998  -1.871  80.043  0.00  0.00    +0.086 A 
ATOM      6  C   UNL     1       4.643  -2.262  79.962  0.00  0.00    +0.012 A 
ATOM      7  C   UNL     1       4.288  -3.455  79.307  0.00  0.00    +0.001 A 
ATOM      8  C   UNL     1       5.283  -4.254  78.713  0.00  0.00    +0.000 A 
ATOM      9  C   UNL     1       6.634  -3.870  78.789  0.00  0.00    +0.001 A 
ATOM     10  C   UNL     1       6.993  -2.688  79.460  0.00  0.00    +0.012 A 
ENDBRANCH   4   5
TORSDOF 1
ENDMDL
