MODEL 1
REMARK VINA RESULT:      -9.2      0.000      0.000
REMARK  Name = H:\Org. chem candidate structure\str-2\Str2-3D.pdb
REMARK  1 active torsions:
REMARK  status: ('A' for Active; 'I' for Inactive)
REMARK    1  A    between atoms: _18  and  _23
REMARK                            x       y       z     vdW  Elec       q    Type
REMARK                         _______ _______ _______ _____ _____    ______ ____
ROOT
ATOM      1  C   UNL     1       6.608   0.428  84.222  0.00  0.00    +0.063 C 
ATOM      2  C   UNL     1       6.695   0.505  82.744  0.00  0.00    +0.111 C 
ATOM      3  N   UNL     1       6.353  -0.621  82.064  0.00  0.00    -0.348 NA
ATOM      4  C   UNL     1       6.358  -0.691  80.710  0.00  0.00    +0.138 C 
ATOM     11  N   UNL     1       6.724   0.398  79.997  0.00  0.00    -0.328 NA
ATOM     12  C   UNL     1       7.106   1.558  80.584  0.00  0.00    +0.192 C 
ATOM     13  N   UNL     1       7.497   2.634  79.835  0.00  0.00    -0.216 N 
ATOM     14  C   UNL     1       7.879   3.806  80.398  0.00  0.00    +0.192 C 
ATOM     15  C   UNL     1       7.900   3.966  81.792  0.00  0.00    +0.045 C 
ATOM     16  C   UNL     1       7.513   2.876  82.592  0.00  0.00    -0.007 C 
ATOM     17  N   UNL     1       8.221   4.725  79.475  0.00  0.00    -0.385 NA
ATOM     18  C   UNL     1       8.059   4.114  78.294  0.00  0.00    +0.146 C 
ATOM     19  C   UNL     1       8.285   4.620  77.004  0.00  0.00    +0.029 C 
ATOM     20  C   UNL     1       8.049   3.771  75.903  0.00  0.00    -0.019 C 
ATOM     21  C   UNL     1       7.598   2.447  76.098  0.00  0.00    +0.053 C 
ATOM     22  C   UNL     1       7.375   1.955  77.399  0.00  0.00    -0.004 C 
ATOM     23  C   UNL     1       7.609   2.806  78.501  0.00  0.00    +0.085 C 
ATOM     24  C   UNL     1       7.107   1.651  82.008  0.00  0.00    +0.139 C 
ENDROOT
BRANCH   4   5
ATOM      5  C   UNL     1       5.998  -1.871  80.043  0.00  0.00    +0.086 A 
ATOM      6  C   UNL     1       4.643  -2.262  79.962  0.00  0.00    +0.012 A 
ATOM      7  C   UNL     1       4.288  -3.455  79.307  0.00  0.00    +0.001 A 
ATOM      8  C   UNL     1       5.283  -4.254  78.713  0.00  0.00    +0.000 A 
ATOM      9  C   UNL     1       6.634  -3.870  78.789  0.00  0.00    +0.001 A 
ATOM     10  C   UNL     1       6.993  -2.688  79.460  0.00  0.00    +0.012 A 
ENDBRANCH   4   5
TORSDOF 1
ENDMDL
MODEL 2
REMARK VINA RESULT:      -8.7     22.599     24.331
REMARK  Name = H:\Org. chem candidate structure\str-2\Str2-3D.pdb
REMARK  1 active torsions:
REMARK  status: ('A' for Active; 'I' for Inactive)
REMARK    1  A    between atoms: _18  and  _23
REMARK                            x       y       z     vdW  Elec       q    Type
REMARK                         _______ _______ _______ _____ _____    ______ ____
ROOT
ATOM      1  C   UNL     1      -1.888  15.395  60.020  0.00  0.00    +0.063 C 
ATOM      2  C   UNL     1      -2.669  14.316  60.671  0.00  0.00    +0.111 C 
ATOM      3  N   UNL     1      -2.698  13.122  60.024  0.00  0.00    -0.348 NA
ATOM      4  C   UNL     1      -3.349  12.038  60.513  0.00  0.00    +0.138 C 
ATOM     11  N   UNL     1      -4.005  12.141  61.691  0.00  0.00    -0.328 NA
ATOM     12  C   UNL     1      -4.056  13.296  62.398  0.00  0.00    +0.192 C 
ATOM     13  N   UNL     1      -4.750  13.375  63.573  0.00  0.00    -0.216 N 
ATOM     14  C   UNL     1      -4.812  14.517  64.301  0.00  0.00    +0.192 C 
ATOM     15  C   UNL     1      -4.165  15.685  63.870  0.00  0.00    +0.045 C 
ATOM     16  C   UNL     1      -3.448  15.641  62.660  0.00  0.00    -0.007 C 
ATOM     17  N   UNL     1      -5.548  14.369  65.418  0.00  0.00    -0.385 NA
ATOM     18  C   UNL     1      -5.972  13.098  65.393  0.00  0.00    +0.146 C 
ATOM     19  C   UNL     1      -6.783  12.423  66.319  0.00  0.00    +0.029 C 
ATOM     20  C   UNL     1      -7.106  11.074  66.066  0.00  0.00    -0.019 C 
ATOM     21  C   UNL     1      -6.623  10.423  64.909  0.00  0.00    +0.053 C 
ATOM     22  C   UNL     1      -5.810  11.114  63.990  0.00  0.00    -0.004 C 
ATOM     23  C   UNL     1      -5.485  12.464  64.245  0.00  0.00    +0.085 C 
ATOM     24  C   UNL     1      -3.376  14.447  61.899  0.00  0.00    +0.139 C 
ENDROOT
BRANCH   4   5
ATOM      5  C   UNL     1      -3.357  10.820  59.816  0.00  0.00    +0.086 A 
ATOM      6  C   UNL     1      -3.174  10.797  58.415  0.00  0.00    +0.012 A 
ATOM      7  C   UNL     1      -3.200   9.575  57.719  0.00  0.00    +0.001 A 
ATOM      8  C   UNL     1      -3.390   8.370  58.419  0.00  0.00    +0.000 A 
ATOM      9  C   UNL     1      -3.572   8.386  59.815  0.00  0.00    +0.001 A 
ATOM     10  C   UNL     1      -3.566   9.608  60.510  0.00  0.00    +0.012 A 
ENDBRANCH   4   5
TORSDOF 1
ENDMDL
MODEL 3
REMARK VINA RESULT:      -8.7     22.675     25.271
REMARK  Name = H:\Org. chem candidate structure\str-2\Str2-3D.pdb
REMARK  1 active torsions:
REMARK  status: ('A' for Active; 'I' for Inactive)
REMARK    1  A    between atoms: _18  and  _23
REMARK                            x       y       z     vdW  Elec       q    Type
REMARK                         _______ _______ _______ _____ _____    ______ ____
ROOT
ATOM      1  C   UNL     1      -7.734   8.774  62.019  0.00  0.00    +0.063 C 
ATOM      2  C   UNL     1      -6.696   9.544  61.293  0.00  0.00    +0.111 C 
ATOM      3  N   UNL     1      -6.695   9.421  59.939  0.00  0.00    -0.348 NA
ATOM      4  C   UNL     1      -5.822  10.085  59.143  0.00  0.00    +0.138 C 
ATOM     11  N   UNL     1      -4.906  10.903  59.709  0.00  0.00    -0.328 NA
ATOM     12  C   UNL     1      -4.811  11.072  61.050  0.00  0.00    +0.192 C 
ATOM     13  N   UNL     1      -3.855  11.885  61.594  0.00  0.00    -0.216 N 
ATOM     14  C   UNL     1      -3.743  12.074  62.932  0.00  0.00    +0.192 C 
ATOM     15  C   UNL     1      -4.607  11.428  63.829  0.00  0.00    +0.045 C 
ATOM     16  C   UNL     1      -5.596  10.576  63.303  0.00  0.00    -0.007 C 
ATOM     17  N   UNL     1      -2.736  12.912  63.244  0.00  0.00    -0.385 NA
ATOM     18  C   UNL     1      -2.190  13.257  62.070  0.00  0.00    +0.146 C 
ATOM     19  C   UNL     1      -1.100  14.106  61.824  0.00  0.00    +0.029 C 
ATOM     20  C   UNL     1      -0.700  14.308  60.487  0.00  0.00    -0.019 C 
ATOM     21  C   UNL     1      -1.381  13.670  59.427  0.00  0.00    +0.053 C 
ATOM     22  C   UNL     1      -2.474  12.822  59.691  0.00  0.00    -0.004 C 
ATOM     23  C   UNL     1      -2.876  12.622  61.029  0.00  0.00    +0.085 C 
ATOM     24  C   UNL     1      -5.721  10.381  61.905  0.00  0.00    +0.139 C 
ENDROOT
BRANCH   4   5
ATOM      5  C   UNL     1      -5.851   9.933  57.748  0.00  0.00    +0.086 A 
ATOM      6  C   UNL     1      -6.736  10.706  56.964  0.00  0.00    +0.012 A 
ATOM      7  C   UNL     1      -6.774  10.537  55.567  0.00  0.00    +0.001 A 
ATOM      8  C   UNL     1      -5.916   9.610  54.947  0.00  0.00    +0.000 A 
ATOM      9  C   UNL     1      -5.032   8.838  55.723  0.00  0.00    +0.001 A 
ATOM     10  C   UNL     1      -5.006   8.991  57.120  0.00  0.00    +0.012 A 
ENDBRANCH   4   5
TORSDOF 1
ENDMDL
MODEL 4
REMARK VINA RESULT:      -8.5     23.208     25.033
REMARK  Name = H:\Org. chem candidate structure\str-2\Str2-3D.pdb
REMARK  1 active torsions:
REMARK  status: ('A' for Active; 'I' for Inactive)
REMARK    1  A    between atoms: _18  and  _23
REMARK                            x       y       z     vdW  Elec       q    Type
REMARK                         _______ _______ _______ _____ _____    ______ ____
ROOT
ATOM      1  C   UNL     1      -0.367  14.084  59.765  0.00  0.00    +0.063 C 
ATOM      2  C   UNL     1      -1.643  13.417  60.116  0.00  0.00    +0.111 C 
ATOM      3  N   UNL     1      -2.183  12.615  59.161  0.00  0.00    -0.348 NA
ATOM      4  C   UNL     1      -3.331  11.920  59.350  0.00  0.00    +0.138 C 
ATOM     11  N   UNL     1      -3.978  12.026  60.533  0.00  0.00    -0.328 NA
ATOM     12  C   UNL     1      -3.533  12.820  61.537  0.00  0.00    +0.192 C 
ATOM     13  N   UNL     1      -4.224  12.927  62.712  0.00  0.00    -0.216 N 
ATOM     14  C   UNL     1      -3.797  13.710  63.733  0.00  0.00    +0.192 C 
ATOM     15  C   UNL     1      -2.617  14.461  63.624  0.00  0.00    +0.045 C 
ATOM     16  C   UNL     1      -1.886  14.381  62.424  0.00  0.00    -0.007 C 
ATOM     17  N   UNL     1      -4.629  13.666  64.791  0.00  0.00    -0.385 NA
ATOM     18  C   UNL     1      -5.616  12.837  64.425  0.00  0.00    +0.146 C 
ATOM     19  C   UNL     1      -6.751  12.446  65.154  0.00  0.00    +0.029 C 
ATOM     20  C   UNL     1      -7.663  11.560  64.544  0.00  0.00    -0.019 C 
ATOM     21  C   UNL     1      -7.438  11.083  63.234  0.00  0.00    +0.053 C 
ATOM     22  C   UNL     1      -6.295  11.484  62.517  0.00  0.00    -0.004 C 
ATOM     23  C   UNL     1      -5.380  12.368  63.129  0.00  0.00    +0.085 C 
ATOM     24  C   UNL     1      -2.325  13.559  61.357  0.00  0.00    +0.139 C 
ENDROOT
BRANCH   4   5
ATOM      5  C   UNL     1      -3.859  11.101  58.340  0.00  0.00    +0.086 A 
ATOM      6  C   UNL     1      -3.000  10.345  57.511  0.00  0.00    +0.012 A 
ATOM      7  C   UNL     1      -3.533   9.539  56.488  0.00  0.00    +0.001 A 
ATOM      8  C   UNL     1      -4.926   9.469  56.301  0.00  0.00    +0.000 A 
ATOM      9  C   UNL     1      -5.787  10.219  57.124  0.00  0.00    +0.001 A 
ATOM     10  C   UNL     1      -5.256  11.040  58.134  0.00  0.00    +0.012 A 
ENDBRANCH   4   5
TORSDOF 1
ENDMDL
MODEL 5
REMARK VINA RESULT:      -8.5      1.612      2.873
REMARK  Name = H:\Org. chem candidate structure\str-2\Str2-3D.pdb
REMARK  1 active torsions:
REMARK  status: ('A' for Active; 'I' for Inactive)
REMARK    1  A    between atoms: _18  and  _23
REMARK                            x       y       z     vdW  Elec       q    Type
REMARK                         _______ _______ _______ _____ _____    ______ ____
ROOT
ATOM      1  C   UNL     1       5.589  -3.176  84.587  0.00  0.00    +0.063 C 
ATOM      2  C   UNL     1       5.820  -2.467  83.306  0.00  0.00    +0.111 C 
ATOM      3  N   UNL     1       5.527  -3.162  82.175  0.00  0.00    -0.348 NA
ATOM      4  C   UNL     1       5.663  -2.634  80.934  0.00  0.00    +0.138 C 
ATOM     11  N   UNL     1       6.114  -1.366  80.805  0.00  0.00    -0.328 NA
ATOM     12  C   UNL     1       6.458  -0.603  81.870  0.00  0.00    +0.192 C 
ATOM     13  N   UNL     1       6.937   0.667  81.705  0.00  0.00    -0.216 N 
ATOM     14  C   UNL     1       7.283   1.452  82.755  0.00  0.00    +0.192 C 
ATOM     15  C   UNL     1       7.170   0.986  84.074  0.00  0.00    +0.045 C 
ATOM     16  C   UNL     1       6.689  -0.320  84.279  0.00  0.00    -0.007 C 
ATOM     17  N   UNL     1       7.729   2.660  82.361  0.00  0.00    -0.385 NA
ATOM     18  C   UNL     1       7.672   2.636  81.023  0.00  0.00    +0.146 C 
ATOM     19  C   UNL     1       8.031   3.640  80.110  0.00  0.00    +0.029 C 
ATOM     20  C   UNL     1       7.889   3.372  78.733  0.00  0.00    -0.019 C 
ATOM     21  C   UNL     1       7.399   2.124  78.289  0.00  0.00    +0.053 C 
ATOM     22  C   UNL     1       7.043   1.128  79.218  0.00  0.00    -0.004 C 
ATOM     23  C   UNL     1       7.182   1.398  80.596  0.00  0.00    +0.085 C 
ATOM     24  C   UNL     1       6.321  -1.141  83.185  0.00  0.00    +0.139 C 
ENDROOT
BRANCH   4   5
ATOM      5  C   UNL     1       5.350  -3.381  79.789  0.00  0.00    +0.086 A 
ATOM      6  C   UNL     1       6.365  -3.761  78.883  0.00  0.00    +0.012 A 
ATOM      7  C   UNL     1       6.043  -4.496  77.727  0.00  0.00    +0.001 A 
ATOM      8  C   UNL     1       4.710  -4.871  77.480  0.00  0.00    +0.000 A 
ATOM      9  C   UNL     1       3.694  -4.497  78.379  0.00  0.00    +0.001 A 
ATOM     10  C   UNL     1       4.010  -3.746  79.525  0.00  0.00    +0.012 A 
ENDBRANCH   4   5
TORSDOF 1
ENDMDL
MODEL 6
REMARK VINA RESULT:      -8.4     28.041     29.590
REMARK  Name = H:\Org. chem candidate structure\str-2\Str2-3D.pdb
REMARK  1 active torsions:
REMARK  status: ('A' for Active; 'I' for Inactive)
REMARK    1  A    between atoms: _18  and  _23
REMARK                            x       y       z     vdW  Elec       q    Type
REMARK                         _______ _______ _______ _____ _____    ______ ____
ROOT
ATOM      1  C   UNL     1     -13.060 -16.703  72.508  0.00  0.00    +0.063 C 
ATOM      2  C   UNL     1     -12.979 -17.043  71.067  0.00  0.00    +0.111 C 
ATOM      3  N   UNL     1     -12.521 -18.288  70.770  0.00  0.00    -0.348 NA
ATOM      4  C   UNL     1     -12.418 -18.747  69.499  0.00  0.00    +0.138 C 
ATOM     11  N   UNL     1     -12.779 -17.939  68.476  0.00  0.00    -0.328 NA
ATOM     12  C   UNL     1     -13.223 -16.674  68.670  0.00  0.00    +0.192 C 
ATOM     13  N   UNL     1     -13.554 -15.872  67.613  0.00  0.00    -0.216 N 
ATOM     14  C   UNL     1     -14.005 -14.604  67.781  0.00  0.00    +0.192 C 
ATOM     15  C   UNL     1     -14.144 -14.050  69.062  0.00  0.00    +0.045 C 
ATOM     16  C   UNL     1     -13.803 -14.845  70.172  0.00  0.00    -0.007 C 
ATOM     17  N   UNL     1     -14.270 -13.999  66.607  0.00  0.00    -0.385 NA
ATOM     18  C   UNL     1     -13.969 -14.907  65.669  0.00  0.00    +0.146 C 
ATOM     19  C   UNL     1     -14.054 -14.789  64.273  0.00  0.00    +0.029 C 
ATOM     20  C   UNL     1     -13.667 -15.893  63.485  0.00  0.00    -0.019 C 
ATOM     21  C   UNL     1     -13.206 -17.083  64.089  0.00  0.00    +0.053 C 
ATOM     22  C   UNL     1     -13.129 -17.186  65.492  0.00  0.00    -0.004 C 
ATOM     23  C   UNL     1     -13.519 -16.082  66.280  0.00  0.00    +0.085 C 
ATOM     24  C   UNL     1     -13.338 -16.172  70.001  0.00  0.00    +0.139 C 
ENDROOT
BRANCH   4   5
ATOM      5  C   UNL     1     -11.941 -20.039  69.230  0.00  0.00    +0.086 A 
ATOM      6  C   UNL     1     -12.271 -20.685  68.017  0.00  0.00    +0.012 A 
ATOM      7  C   UNL     1     -11.804 -21.987  67.760  0.00  0.00    +0.001 A 
ATOM      8  C   UNL     1     -10.991 -22.642  68.703  0.00  0.00    +0.000 A 
ATOM      9  C   UNL     1     -10.658 -22.004  69.913  0.00  0.00    +0.001 A 
ATOM     10  C   UNL     1     -11.140 -20.710  70.180  0.00  0.00    +0.012 A 
ENDBRANCH   4   5
TORSDOF 1
ENDMDL
MODEL 7
REMARK VINA RESULT:      -8.4     22.320     24.621
REMARK  Name = H:\Org. chem candidate structure\str-2\Str2-3D.pdb
REMARK  1 active torsions:
REMARK  status: ('A' for Active; 'I' for Inactive)
REMARK    1  A    between atoms: _18  and  _23
REMARK                            x       y       z     vdW  Elec       q    Type
REMARK                         _______ _______ _______ _____ _____    ______ ____
ROOT
ATOM      1  C   UNL     1      -0.795  14.797  59.016  0.00  0.00    +0.063 C 
ATOM      2  C   UNL     1      -1.574  14.310  60.180  0.00  0.00    +0.111 C 
ATOM      3  N   UNL     1      -1.441  15.021  61.330  0.00  0.00    -0.348 NA
ATOM      4  C   UNL     1      -2.112  14.710  62.466  0.00  0.00    +0.138 C 
ATOM     11  N   UNL     1      -2.947  13.647  62.467  0.00  0.00    -0.328 NA
ATOM     12  C   UNL     1      -3.127  12.861  61.378  0.00  0.00    +0.192 C 
ATOM     13  N   UNL     1      -3.957  11.776  61.419  0.00  0.00    -0.216 N 
ATOM     14  C   UNL     1      -4.157  10.977  60.341  0.00  0.00    +0.192 C 
ATOM     15  C   UNL     1      -3.505  11.228  59.124  0.00  0.00    +0.045 C 
ATOM     16  C   UNL     1      -2.636  12.332  59.051  0.00  0.00    -0.007 C 
ATOM     17  N   UNL     1      -5.012   9.971  60.606  0.00  0.00    -0.385 NA
ATOM     18  C   UNL     1      -5.356  10.132  61.890  0.00  0.00    +0.146 C 
ATOM     19  C   UNL     1      -6.219   9.349  62.673  0.00  0.00    +0.029 C 
ATOM     20  C   UNL     1      -6.418   9.718  64.020  0.00  0.00    -0.019 C 
ATOM     21  C   UNL     1      -5.763  10.845  64.562  0.00  0.00    +0.053 C 
ATOM     22  C   UNL     1      -4.901  11.621  63.762  0.00  0.00    -0.004 C 
ATOM     23  C   UNL     1      -4.705  11.253  62.414  0.00  0.00    +0.085 C 
ATOM     24  C   UNL     1      -2.429  13.172  60.172  0.00  0.00    +0.139 C 
ENDROOT
BRANCH   4   5
ATOM      5  C   UNL     1      -1.950  15.469  63.636  0.00  0.00    +0.086 A 
ATOM      6  C   UNL     1      -1.779  16.869  63.562  0.00  0.00    +0.012 A 
ATOM      7  C   UNL     1      -1.600  17.623  64.737  0.00  0.00    +0.001 A 
ATOM      8  C   UNL     1      -1.609  16.985  65.990  0.00  0.00    +0.000 A 
ATOM      9  C   UNL     1      -1.780  15.590  66.071  0.00  0.00    +0.001 A 
ATOM     10  C   UNL     1      -1.940  14.832  64.897  0.00  0.00    +0.012 A 
ENDBRANCH   4   5
TORSDOF 1
ENDMDL
MODEL 8
REMARK VINA RESULT:      -8.4     22.364     24.380
REMARK  Name = H:\Org. chem candidate structure\str-2\Str2-3D.pdb
REMARK  1 active torsions:
REMARK  status: ('A' for Active; 'I' for Inactive)
REMARK    1  A    between atoms: _18  and  _23
REMARK                            x       y       z     vdW  Elec       q    Type
REMARK                         _______ _______ _______ _____ _____    ______ ____
ROOT
ATOM      1  C   UNL     1      -2.168  15.424  63.319  0.00  0.00    +0.063 C 
ATOM      2  C   UNL     1      -2.936  14.230  62.895  0.00  0.00    +0.111 C 
ATOM      3  N   UNL     1      -3.829  13.740  63.795  0.00  0.00    -0.348 NA
ATOM      4  C   UNL     1      -4.619  12.669  63.536  0.00  0.00    +0.138 C 
ATOM     11  N   UNL     1      -4.520  12.053  62.336  0.00  0.00    -0.328 NA
ATOM     12  C   UNL     1      -3.643  12.452  61.384  0.00  0.00    +0.192 C 
ATOM     13  N   UNL     1      -3.547  11.790  60.191  0.00  0.00    -0.216 N 
ATOM     14  C   UNL     1      -2.681  12.172  59.220  0.00  0.00    +0.192 C 
ATOM     15  C   UNL     1      -1.828  13.271  59.403  0.00  0.00    +0.045 C 
ATOM     16  C   UNL     1      -1.894  13.968  60.623  0.00  0.00    -0.007 C 
ATOM     17  N   UNL     1      -2.756  11.381  58.133  0.00  0.00    -0.385 NA
ATOM     18  C   UNL     1      -3.690  10.467  58.427  0.00  0.00    +0.146 C 
ATOM     19  C   UNL     1      -4.152   9.399  57.642  0.00  0.00    +0.029 C 
ATOM     20  C   UNL     1      -5.147   8.557  58.181  0.00  0.00    -0.019 C 
ATOM     21  C   UNL     1      -5.660   8.785  59.476  0.00  0.00    +0.053 C 
ATOM     22  C   UNL     1      -5.186   9.862  60.250  0.00  0.00    -0.004 C 
ATOM     23  C   UNL     1      -4.193  10.707  59.710  0.00  0.00    +0.085 C 
ATOM     24  C   UNL     1      -2.802  13.576  61.638  0.00  0.00    +0.139 C 
ENDROOT
BRANCH   4   5
ATOM      5  C   UNL     1      -5.530  12.192  64.491  0.00  0.00    +0.086 A 
ATOM      6  C   UNL     1      -6.184  13.087  65.366  0.00  0.00    +0.012 A 
ATOM      7  C   UNL     1      -7.083  12.601  66.333  0.00  0.00    +0.001 A 
ATOM      8  C   UNL     1      -7.347  11.222  66.418  0.00  0.00    +0.000 A 
ATOM      9  C   UNL     1      -6.700  10.325  65.549  0.00  0.00    +0.001 A 
ATOM     10  C   UNL     1      -5.786  10.806  64.594  0.00  0.00    +0.012 A 
ENDBRANCH   4   5
TORSDOF 1
ENDMDL
MODEL 9
REMARK VINA RESULT:      -8.3      1.942      6.360
REMARK  Name = H:\Org. chem candidate structure\str-2\Str2-3D.pdb
REMARK  1 active torsions:
REMARK  status: ('A' for Active; 'I' for Inactive)
REMARK    1  A    between atoms: _18  and  _23
REMARK                            x       y       z     vdW  Elec       q    Type
REMARK                         _______ _______ _______ _____ _____    ______ ____
ROOT
ATOM      1  C   UNL     1       7.936  -2.603  79.857  0.00  0.00    +0.063 C 
ATOM      2  C   UNL     1       7.711  -1.267  80.461  0.00  0.00    +0.111 C 
ATOM      3  N   UNL     1       7.814  -0.204  79.621  0.00  0.00    -0.348 NA
ATOM      4  C   UNL     1       7.610   1.073  80.026  0.00  0.00    +0.138 C 
ATOM     11  N   UNL     1       7.294   1.311  81.319  0.00  0.00    -0.328 NA
ATOM     12  C   UNL     1       7.192   0.320  82.238  0.00  0.00    +0.192 C 
ATOM     13  N   UNL     1       6.898   0.595  83.545  0.00  0.00    -0.216 N 
ATOM     14  C   UNL     1       6.787  -0.379  84.481  0.00  0.00    +0.192 C 
ATOM     15  C   UNL     1       6.980  -1.728  84.148  0.00  0.00    +0.045 C 
ATOM     16  C   UNL     1       7.294  -2.045  82.814  0.00  0.00    -0.007 C 
ATOM     17  N   UNL     1       6.492   0.118  85.698  0.00  0.00    -0.385 NA
ATOM     18  C   UNL     1       6.423   1.445  85.528  0.00  0.00    +0.146 C 
ATOM     19  C   UNL     1       6.154   2.440  86.481  0.00  0.00    +0.029 C 
ATOM     20  C   UNL     1       6.146   3.785  86.058  0.00  0.00    -0.019 C 
ATOM     21  C   UNL     1       6.404   4.117  84.710  0.00  0.00    +0.053 C 
ATOM     22  C   UNL     1       6.672   3.107  83.766  0.00  0.00    -0.004 C 
ATOM     23  C   UNL     1       6.677   1.760  84.190  0.00  0.00    +0.085 C 
ATOM     24  C   UNL     1       7.405  -1.031  81.831  0.00  0.00    +0.139 C 
ENDROOT
BRANCH   4   5
ATOM      5  C   UNL     1       7.725   2.146  79.130  0.00  0.00    +0.086 A 
ATOM      6  C   UNL     1       7.236   2.030  77.809  0.00  0.00    +0.012 A 
ATOM      7  C   UNL     1       7.369   3.104  76.909  0.00  0.00    +0.001 A 
ATOM      8  C   UNL     1       7.975   4.302  77.328  0.00  0.00    +0.000 A 
ATOM      9  C   UNL     1       8.464   4.424  78.642  0.00  0.00    +0.001 A 
ATOM     10  C   UNL     1       8.348   3.347  79.538  0.00  0.00    +0.012 A 
ENDBRANCH   4   5
TORSDOF 1
ENDMDL
MODEL 10
REMARK VINA RESULT:      -8.2     27.785     30.195
REMARK  Name = H:\Org. chem candidate structure\str-2\Str2-3D.pdb
REMARK  1 active torsions:
REMARK  status: ('A' for Active; 'I' for Inactive)
REMARK    1  A    between atoms: _18  and  _23
REMARK                            x       y       z     vdW  Elec       q    Type
REMARK                         _______ _______ _______ _____ _____    ______ ____
ROOT
ATOM      1  C   UNL     1     -13.928 -13.793  70.191  0.00  0.00    +0.063 C 
ATOM      2  C   UNL     1     -13.654 -15.062  69.474  0.00  0.00    +0.111 C 
ATOM      3  N   UNL     1     -13.767 -15.022  68.120  0.00  0.00    -0.348 NA
ATOM      4  C   UNL     1     -13.521 -16.096  67.332  0.00  0.00    +0.138 C 
ATOM     11  N   UNL     1     -13.152 -17.263  67.907  0.00  0.00    -0.328 NA
ATOM     12  C   UNL     1     -13.037 -17.410  69.249  0.00  0.00    +0.192 C 
ATOM     13  N   UNL     1     -12.689 -18.611  69.801  0.00  0.00    -0.216 N 
ATOM     14  C   UNL     1     -12.562 -18.781  71.140  0.00  0.00    +0.192 C 
ATOM     15  C   UNL     1     -12.795 -17.721  72.029  0.00  0.00    +0.045 C 
ATOM     16  C   UNL     1     -13.165 -16.473  71.494  0.00  0.00    -0.007 C 
ATOM     17  N   UNL     1     -12.212 -20.041  71.462  0.00  0.00    -0.385 NA
ATOM     18  C   UNL     1     -12.123 -20.689  70.293  0.00  0.00    +0.146 C 
ATOM     19  C   UNL     1     -11.797 -22.034  70.056  0.00  0.00    +0.029 C 
ATOM     20  C   UNL     1     -11.778 -22.492  68.722  0.00  0.00    -0.019 C 
ATOM     21  C   UNL     1     -12.080 -21.616  67.656  0.00  0.00    +0.053 C 
ATOM     22  C   UNL     1     -12.403 -20.270  67.910  0.00  0.00    -0.004 C 
ATOM     23  C   UNL     1     -12.420 -19.811  69.245  0.00  0.00    +0.085 C 
ATOM     24  C   UNL     1     -13.292 -16.290  70.095  0.00  0.00    +0.139 C 
ENDROOT
BRANCH   4   5
ATOM      5  C   UNL     1     -13.648 -16.017  65.937  0.00  0.00    +0.086 A 
ATOM      6  C   UNL     1     -13.133 -17.043  65.113  0.00  0.00    +0.012 A 
ATOM      7  C   UNL     1     -13.248 -16.951  63.713  0.00  0.00    +0.001 A 
ATOM      8  C   UNL     1     -13.893 -15.844  63.132  0.00  0.00    +0.000 A 
ATOM      9  C   UNL     1     -14.409 -14.819  63.947  0.00  0.00    +0.001 A 
ATOM     10  C   UNL     1     -14.278 -14.900  65.344  0.00  0.00    +0.012 A 
ENDBRANCH   4   5
TORSDOF 1
ENDMDL
MODEL 11
REMARK VINA RESULT:      -8.2     22.631     23.728
REMARK  Name = H:\Org. chem candidate structure\str-2\Str2-3D.pdb
REMARK  1 active torsions:
REMARK  status: ('A' for Active; 'I' for Inactive)
REMARK    1  A    between atoms: _18  and  _23
REMARK                            x       y       z     vdW  Elec       q    Type
REMARK                         _______ _______ _______ _____ _____    ______ ____
ROOT
ATOM      1  C   UNL     1      -5.647   9.002  62.239  0.00  0.00    +0.063 C 
ATOM      2  C   UNL     1      -5.235  10.338  62.731  0.00  0.00    +0.111 C 
ATOM      3  N   UNL     1      -4.271  10.971  62.012  0.00  0.00    -0.348 NA
ATOM      4  C   UNL     1      -3.814  12.208  62.328  0.00  0.00    +0.138 C 
ATOM     11  N   UNL     1      -4.328  12.845  63.404  0.00  0.00    -0.328 NA
ATOM     12  C   UNL     1      -5.274  12.286  64.198  0.00  0.00    +0.192 C 
ATOM     13  N   UNL     1      -5.754  12.944  65.296  0.00  0.00    -0.216 N 
ATOM     14  C   UNL     1      -6.703  12.409  66.102  0.00  0.00    +0.192 C 
ATOM     15  C   UNL     1      -7.234  11.135  65.847  0.00  0.00    +0.045 C 
ATOM     16  C   UNL     1      -6.754  10.426  64.731  0.00  0.00    -0.007 C 
ATOM     17  N   UNL     1      -7.027  13.228  67.120  0.00  0.00    -0.385 NA
ATOM     18  C   UNL     1      -6.254  14.311  66.958  0.00  0.00    +0.146 C 
ATOM     19  C   UNL     1      -6.185  15.468  67.750  0.00  0.00    +0.029 C 
ATOM     20  C   UNL     1      -5.275  16.479  67.378  0.00  0.00    -0.019 C 
ATOM     21  C   UNL     1      -4.456  16.325  66.238  0.00  0.00    +0.053 C 
ATOM     22  C   UNL     1      -4.538  15.159  65.453  0.00  0.00    -0.004 C 
ATOM     23  C   UNL     1      -5.451  14.149  65.825  0.00  0.00    +0.085 C 
ATOM     24  C   UNL     1      -5.767  10.985  63.882  0.00  0.00    +0.139 C 
ENDROOT
BRANCH   4   5
ATOM      5  C   UNL     1      -2.817  12.831  61.562  0.00  0.00    +0.086 A 
ATOM      6  C   UNL     1      -2.861  12.776  60.151  0.00  0.00    +0.012 A 
ATOM      7  C   UNL     1      -1.850  13.387  59.387  0.00  0.00    +0.001 A 
ATOM      8  C   UNL     1      -0.801  14.072  60.028  0.00  0.00    +0.000 A 
ATOM      9  C   UNL     1      -0.752  14.131  61.433  0.00  0.00    +0.001 A 
ATOM     10  C   UNL     1      -1.751  13.504  62.198  0.00  0.00    +0.012 A 
ENDBRANCH   4   5
TORSDOF 1
ENDMDL
MODEL 12
REMARK VINA RESULT:      -8.2      2.786      5.300
REMARK  Name = H:\Org. chem candidate structure\str-2\Str2-3D.pdb
REMARK  1 active torsions:
REMARK  status: ('A' for Active; 'I' for Inactive)
REMARK    1  A    between atoms: _18  and  _23
REMARK                            x       y       z     vdW  Elec       q    Type
REMARK                         _______ _______ _______ _____ _____    ______ ____
ROOT
ATOM      1  C   UNL     1       7.427  -3.079  79.313  0.00  0.00    +0.063 C 
ATOM      2  C   UNL     1       7.053  -2.320  80.530  0.00  0.00    +0.111 C 
ATOM      3  N   UNL     1       6.609  -3.055  81.583  0.00  0.00    -0.348 NA
ATOM      4  C   UNL     1       6.257  -2.500  82.769  0.00  0.00    +0.138 C 
ATOM     11  N   UNL     1       6.344  -1.160  82.919  0.00  0.00    -0.328 NA
ATOM     12  C   UNL     1       6.751  -0.340  81.920  0.00  0.00    +0.192 C 
ATOM     13  N   UNL     1       6.802   1.016  82.095  0.00  0.00    -0.216 N 
ATOM     14  C   UNL     1       7.210   1.856  81.112  0.00  0.00    +0.192 C 
ATOM     15  C   UNL     1       7.595   1.367  79.855  0.00  0.00    +0.045 C 
ATOM     16  C   UNL     1       7.546  -0.023  79.639  0.00  0.00    -0.007 C 
ATOM     17  N   UNL     1       7.181   3.145  81.502  0.00  0.00    -0.385 NA
ATOM     18  C   UNL     1       6.734   3.120  82.764  0.00  0.00    +0.146 C 
ATOM     19  C   UNL     1       6.507   4.195  83.638  0.00  0.00    +0.029 C 
ATOM     20  C   UNL     1       6.018   3.914  84.930  0.00  0.00    -0.019 C 
ATOM     21  C   UNL     1       5.763   2.584  85.330  0.00  0.00    +0.053 C 
ATOM     22  C   UNL     1       5.997   1.516  84.442  0.00  0.00    -0.004 C 
ATOM     23  C   UNL     1       6.489   1.798  83.149  0.00  0.00    +0.085 C 
ATOM     24  C   UNL     1       7.125  -0.905  80.664  0.00  0.00    +0.139 C 
ENDROOT
BRANCH   4   5
ATOM      5  C   UNL     1       5.802  -3.292  83.834  0.00  0.00    +0.086 A 
ATOM      6  C   UNL     1       6.425  -3.214  85.100  0.00  0.00    +0.012 A 
ATOM      7  C   UNL     1       5.976  -4.023  86.160  0.00  0.00    +0.001 A 
ATOM      8  C   UNL     1       4.893  -4.899  85.967  0.00  0.00    +0.000 A 
ATOM      9  C   UNL     1       4.268  -4.981  84.709  0.00  0.00    +0.001 A 
ATOM     10  C   UNL     1       4.726  -4.188  83.643  0.00  0.00    +0.012 A 
ENDBRANCH   4   5
TORSDOF 1
ENDMDL
MODEL 13
REMARK VINA RESULT:      -8.1      2.092      5.063
REMARK  Name = H:\Org. chem candidate structure\str-2\Str2-3D.pdb
REMARK  1 active torsions:
REMARK  status: ('A' for Active; 'I' for Inactive)
REMARK    1  A    between atoms: _18  and  _23
REMARK                            x       y       z     vdW  Elec       q    Type
REMARK                         _______ _______ _______ _____ _____    ______ ____
ROOT
ATOM      1  C   UNL     1       7.131   1.675  77.987  0.00  0.00    +0.063 C 
ATOM      2  C   UNL     1       6.750   1.364  79.385  0.00  0.00    +0.111 C 
ATOM      3  N   UNL     1       6.236   0.125  79.605  0.00  0.00    -0.348 NA
ATOM      4  C   UNL     1       5.868  -0.308  80.836  0.00  0.00    +0.138 C 
ATOM     11  N   UNL     1       6.010   0.520  81.895  0.00  0.00    -0.328 NA
ATOM     12  C   UNL     1       6.489   1.782  81.773  0.00  0.00    +0.192 C 
ATOM     13  N   UNL     1       6.595   2.605  82.860  0.00  0.00    -0.216 N 
ATOM     14  C   UNL     1       7.076   3.869  82.765  0.00  0.00    +0.192 C 
ATOM     15  C   UNL     1       7.482   4.398  81.530  0.00  0.00    +0.045 C 
ATOM     16  C   UNL     1       7.377   3.580  80.390  0.00  0.00    -0.007 C 
ATOM     17  N   UNL     1       7.092   4.498  83.956  0.00  0.00    -0.385 NA
ATOM     18  C   UNL     1       6.599   3.608  84.828  0.00  0.00    +0.146 C 
ATOM     19  C   UNL     1       6.391   3.754  86.209  0.00  0.00    +0.029 C 
ATOM     20  C   UNL     1       5.844   2.666  86.920  0.00  0.00    -0.019 C 
ATOM     21  C   UNL     1       5.516   1.464  86.257  0.00  0.00    +0.053 C 
ATOM     22  C   UNL     1       5.732   1.333  84.871  0.00  0.00    -0.004 C 
ATOM     23  C   UNL     1       6.282   2.422  84.160  0.00  0.00    +0.085 C 
ATOM     24  C   UNL     1       6.881   2.257  80.486  0.00  0.00    +0.139 C 
ENDROOT
BRANCH   4   5
ATOM      5  C   UNL     1       5.341  -1.595  81.024  0.00  0.00    +0.086 A 
ATOM      6  C   UNL     1       5.535  -2.275  82.248  0.00  0.00    +0.012 A 
ATOM      7  C   UNL     1       5.019  -3.572  82.425  0.00  0.00    +0.001 A 
ATOM      8  C   UNL     1       4.291  -4.188  81.391  0.00  0.00    +0.000 A 
ATOM      9  C   UNL     1       4.094  -3.515  80.170  0.00  0.00    +0.001 A 
ATOM     10  C   UNL     1       4.625  -2.227  79.983  0.00  0.00    +0.012 A 
ENDBRANCH   4   5
TORSDOF 1
ENDMDL
MODEL 14
REMARK VINA RESULT:      -8.1     22.792     24.414
REMARK  Name = H:\Org. chem candidate structure\str-2\Str2-3D.pdb
REMARK  1 active torsions:
REMARK  status: ('A' for Active; 'I' for Inactive)
REMARK    1  A    between atoms: _18  and  _23
REMARK                            x       y       z     vdW  Elec       q    Type
REMARK                         _______ _______ _______ _____ _____    ______ ____
ROOT
ATOM      1  C   UNL     1      -7.838   8.539  61.698  0.00  0.00    +0.063 C 
ATOM      2  C   UNL     1      -6.904   9.665  61.936  0.00  0.00    +0.111 C 
ATOM      3  N   UNL     1      -7.040  10.318  63.120  0.00  0.00    -0.348 NA
ATOM      4  C   UNL     1      -6.239  11.349  63.485  0.00  0.00    +0.138 C 
ATOM     11  N   UNL     1      -5.265  11.756  62.641  0.00  0.00    -0.328 NA
ATOM     12  C   UNL     1      -5.067  11.186  61.428  0.00  0.00    +0.192 C 
ATOM     13  N   UNL     1      -4.091  11.639  60.584  0.00  0.00    -0.216 N 
ATOM     14  C   UNL     1      -3.870  11.082  59.368  0.00  0.00    +0.192 C 
ATOM     15  C   UNL     1      -4.650  10.009  58.912  0.00  0.00    +0.045 C 
ATOM     16  C   UNL     1      -5.670   9.524  59.751  0.00  0.00    -0.007 C 
ATOM     17  N   UNL     1      -2.862  11.685  58.709  0.00  0.00    -0.385 NA
ATOM     18  C   UNL     1      -2.438  12.657  59.528  0.00  0.00    +0.146 C 
ATOM     19  C   UNL     1      -1.411  13.591  59.324  0.00  0.00    +0.029 C 
ATOM     20  C   UNL     1      -1.155  14.534  60.342  0.00  0.00    -0.019 C 
ATOM     21  C   UNL     1      -1.916  14.534  61.531  0.00  0.00    +0.053 C 
ATOM     22  C   UNL     1      -2.943  13.589  61.720  0.00  0.00    -0.004 C 
ATOM     23  C   UNL     1      -3.197  12.644  60.703  0.00  0.00    +0.085 C 
ATOM     24  C   UNL     1      -5.900  10.099  61.025  0.00  0.00    +0.139 C 
ENDROOT
BRANCH   4   5
ATOM      5  C   UNL     1      -6.409  11.999  64.717  0.00  0.00    +0.086 A 
ATOM      6  C   UNL     1      -7.220  11.425  65.722  0.00  0.00    +0.012 A 
ATOM      7  C   UNL     1      -7.401  12.089  66.949  0.00  0.00    +0.001 A 
ATOM      8  C   UNL     1      -6.759  13.319  67.185  0.00  0.00    +0.000 A 
ATOM      9  C   UNL     1      -5.950  13.895  66.188  0.00  0.00    +0.001 A 
ATOM     10  C   UNL     1      -5.783  13.243  64.954  0.00  0.00    +0.012 A 
ENDBRANCH   4   5
TORSDOF 1
ENDMDL
MODEL 15
REMARK VINA RESULT:      -8.0      3.629      5.150
REMARK  Name = H:\Org. chem candidate structure\str-2\Str2-3D.pdb
REMARK  1 active torsions:
REMARK  status: ('A' for Active; 'I' for Inactive)
REMARK    1  A    between atoms: _18  and  _23
REMARK                            x       y       z     vdW  Elec       q    Type
REMARK                         _______ _______ _______ _____ _____    ______ ____
ROOT
ATOM      1  C   UNL     1       7.490  -4.363  86.190  0.00  0.00    +0.063 C 
ATOM      2  C   UNL     1       7.277  -3.235  85.251  0.00  0.00    +0.111 C 
ATOM      3  N   UNL     1       7.217  -3.556  83.932  0.00  0.00    -0.348 NA
ATOM      4  C   UNL     1       7.001  -2.634  82.963  0.00  0.00    +0.138 C 
ATOM     11  N   UNL     1       6.842  -1.337  83.311  0.00  0.00    -0.328 NA
ATOM     12  C   UNL     1       6.911  -0.915  84.597  0.00  0.00    +0.192 C 
ATOM     13  N   UNL     1       6.774   0.408  84.915  0.00  0.00    -0.216 N 
ATOM     14  C   UNL     1       6.834   0.854  86.194  0.00  0.00    +0.192 C 
ATOM     15  C   UNL     1       7.051  -0.033  87.260  0.00  0.00    +0.045 C 
ATOM     16  C   UNL     1       7.206  -1.400  86.966  0.00  0.00    -0.007 C 
ATOM     17  N   UNL     1       6.673   2.188  86.275  0.00  0.00    -0.385 NA
ATOM     18  C   UNL     1       6.516   2.600  85.009  0.00  0.00    +0.146 C 
ATOM     19  C   UNL     1       6.320   3.904  84.527  0.00  0.00    +0.029 C 
ATOM     20  C   UNL     1       6.189   4.088  83.135  0.00  0.00    -0.019 C 
ATOM     21  C   UNL     1       6.255   2.987  82.254  0.00  0.00    +0.053 C 
ATOM     22  C   UNL     1       6.450   1.685  82.754  0.00  0.00    -0.004 C 
ATOM     23  C   UNL     1       6.578   1.500  84.147  0.00  0.00    +0.085 C 
ATOM     24  C   UNL     1       7.138  -1.871  85.632  0.00  0.00    +0.139 C 
ENDROOT
BRANCH   4   5
ATOM      5  C   UNL     1       6.945  -3.003  81.610  0.00  0.00    +0.086 A 
ATOM      6  C   UNL     1       5.762  -3.553  81.067  0.00  0.00    +0.012 A 
ATOM      7  C   UNL     1       5.717  -3.937  79.714  0.00  0.00    +0.001 A 
ATOM      8  C   UNL     1       6.845  -3.756  78.893  0.00  0.00    +0.000 A 
ATOM      9  C   UNL     1       8.025  -3.208  79.427  0.00  0.00    +0.001 A 
ATOM     10  C   UNL     1       8.080  -2.841  80.783  0.00  0.00    +0.012 A 
ENDBRANCH   4   5
TORSDOF 1
ENDMDL
MODEL 16
REMARK VINA RESULT:      -8.0     23.113     24.569
REMARK  Name = H:\Org. chem candidate structure\str-2\Str2-3D.pdb
REMARK  1 active torsions:
REMARK  status: ('A' for Active; 'I' for Inactive)
REMARK    1  A    between atoms: _18  and  _23
REMARK                            x       y       z     vdW  Elec       q    Type
REMARK                         _______ _______ _______ _____ _____    ______ ____
ROOT
ATOM      1  C   UNL     1      -7.875   8.732  62.024  0.00  0.00    +0.063 C 
ATOM      2  C   UNL     1      -6.741   9.629  61.699  0.00  0.00    +0.111 C 
ATOM      3  N   UNL     1      -6.157   9.442  60.486  0.00  0.00    -0.348 NA
ATOM      4  C   UNL     1      -5.128  10.205  60.042  0.00  0.00    +0.138 C 
ATOM     11  N   UNL     1      -4.651  11.191  60.834  0.00  0.00    -0.328 NA
ATOM     12  C   UNL     1      -5.149  11.438  62.069  0.00  0.00    +0.192 C 
ATOM     13  N   UNL     1      -4.626  12.426  62.858  0.00  0.00    -0.216 N 
ATOM     14  C   UNL     1      -5.110  12.695  64.095  0.00  0.00    +0.192 C 
ATOM     15  C   UNL     1      -6.175  11.957  64.632  0.00  0.00    +0.045 C 
ATOM     16  C   UNL     1      -6.731  10.927  63.851  0.00  0.00    -0.007 C 
ATOM     17  N   UNL     1      -4.447  13.705  64.691  0.00  0.00    -0.385 NA
ATOM     18  C   UNL     1      -3.511  14.079  63.809  0.00  0.00    +0.146 C 
ATOM     19  C   UNL     1      -2.541  15.087  63.931  0.00  0.00    +0.029 C 
ATOM     20  C   UNL     1      -1.649  15.289  62.857  0.00  0.00    -0.019 C 
ATOM     21  C   UNL     1      -1.733  14.495  61.692  0.00  0.00    +0.053 C 
ATOM     22  C   UNL     1      -2.713  13.489  61.585  0.00  0.00    -0.004 C 
ATOM     23  C   UNL     1      -3.607  13.289  62.659  0.00  0.00    +0.085 C 
ATOM     24  C   UNL     1      -6.232  10.646  62.554  0.00  0.00    +0.139 C 
ENDROOT
BRANCH   4   5
ATOM      5  C   UNL     1      -4.551   9.983  58.782  0.00  0.00    +0.086 A 
ATOM      6  C   UNL     1      -3.266  10.489  58.485  0.00  0.00    +0.012 A 
ATOM      7  C   UNL     1      -2.699  10.279  57.215  0.00  0.00    +0.001 A 
ATOM      8  C   UNL     1      -3.404   9.546  56.242  0.00  0.00    +0.000 A 
ATOM      9  C   UNL     1      -4.684   9.038  56.532  0.00  0.00    +0.001 A 
ATOM     10  C   UNL     1      -5.260   9.263  57.794  0.00  0.00    +0.012 A 
ENDBRANCH   4   5
TORSDOF 1
ENDMDL
MODEL 17
REMARK VINA RESULT:      -8.0     42.290     45.666
REMARK  Name = H:\Org. chem candidate structure\str-2\Str2-3D.pdb
REMARK  1 active torsions:
REMARK  status: ('A' for Active; 'I' for Inactive)
REMARK    1  A    between atoms: _18  and  _23
REMARK                            x       y       z     vdW  Elec       q    Type
REMARK                         _______ _______ _______ _____ _____    ______ ____
ROOT
ATOM      1  C   UNL     1      12.246   4.030  38.347  0.00  0.00    +0.063 C 
ATOM      2  C   UNL     1      12.147   3.217  37.111  0.00  0.00    +0.111 C 
ATOM      3  N   UNL     1      12.365   3.874  35.942  0.00  0.00    -0.348 NA
ATOM      4  C   UNL     1      12.334   3.255  34.736  0.00  0.00    +0.138 C 
ATOM     11  N   UNL     1      12.070   1.930  34.683  0.00  0.00    -0.328 NA
ATOM     12  C   UNL     1      11.814   1.194  35.792  0.00  0.00    +0.192 C 
ATOM     13  N   UNL     1      11.524  -0.139  35.703  0.00  0.00    -0.216 N 
ATOM     14  C   UNL     1      11.269  -0.898  36.797  0.00  0.00    +0.192 C 
ATOM     15  C   UNL     1      11.284  -0.340  38.084  0.00  0.00    +0.045 C 
ATOM     16  C   UNL     1      11.570   1.032  38.210  0.00  0.00    -0.007 C 
ATOM     17  N   UNL     1      11.009  -2.180  36.477  0.00  0.00    -0.385 NA
ATOM     18  C   UNL     1      11.092  -2.232  35.141  0.00  0.00    +0.146 C 
ATOM     19  C   UNL     1      10.901  -3.332  34.290  0.00  0.00    +0.029 C 
ATOM     20  C   UNL     1      11.035  -3.133  32.900  0.00  0.00    -0.019 C 
ATOM     21  C   UNL     1      11.352  -1.858  32.383  0.00  0.00    +0.053 C 
ATOM     22  C   UNL     1      11.543  -0.765  33.250  0.00  0.00    -0.004 C 
ATOM     23  C   UNL     1      11.411  -0.965  34.641  0.00  0.00    +0.085 C 
ATOM     24  C   UNL     1      11.843   1.827  37.070  0.00  0.00    +0.139 C 
ENDROOT
BRANCH   4   5
ATOM      5  C   UNL     1      12.564   3.967  33.549  0.00  0.00    +0.086 A 
ATOM      6  C   UNL     1      11.651   3.880  32.475  0.00  0.00    +0.012 A 
ATOM      7  C   UNL     1      11.896   4.582  31.280  0.00  0.00    +0.001 A 
ATOM      8  C   UNL     1      13.043   5.388  31.160  0.00  0.00    +0.000 A 
ATOM      9  C   UNL     1      13.956   5.480  32.227  0.00  0.00    +0.001 A 
ATOM     10  C   UNL     1      13.723   4.764  33.414  0.00  0.00    +0.012 A 
ENDBRANCH   4   5
TORSDOF 1
ENDMDL
MODEL 18
REMARK VINA RESULT:      -7.9      2.477      7.039
REMARK  Name = H:\Org. chem candidate structure\str-2\Str2-3D.pdb
REMARK  1 active torsions:
REMARK  status: ('A' for Active; 'I' for Inactive)
REMARK    1  A    between atoms: _18  and  _23
REMARK                            x       y       z     vdW  Elec       q    Type
REMARK                         _______ _______ _______ _____ _____    ______ ____
ROOT
ATOM      1  C   UNL     1       7.941   4.258  80.903  0.00  0.00    +0.063 C 
ATOM      2  C   UNL     1       7.421   3.080  81.639  0.00  0.00    +0.111 C 
ATOM      3  N   UNL     1       7.152   3.267  82.957  0.00  0.00    -0.348 NA
ATOM      4  C   UNL     1       6.648   2.289  83.749  0.00  0.00    +0.138 C 
ATOM     11  N   UNL     1       6.405   1.071  83.215  0.00  0.00    -0.328 NA
ATOM     12  C   UNL     1       6.664   0.780  81.917  0.00  0.00    +0.192 C 
ATOM     13  N   UNL     1       6.432  -0.470  81.414  0.00  0.00    -0.216 N 
ATOM     14  C   UNL     1       6.678  -0.785  80.118  0.00  0.00    +0.192 C 
ATOM     15  C   UNL     1       7.197   0.168  79.229  0.00  0.00    +0.045 C 
ATOM     16  C   UNL     1       7.456   1.462  79.717  0.00  0.00    -0.007 C 
ATOM     17  N   UNL     1       6.377  -2.068  79.841  0.00  0.00    -0.385 NA
ATOM     18  C   UNL     1       5.936  -2.582  80.996  0.00  0.00    +0.146 C 
ATOM     19  C   UNL     1       5.498  -3.889  81.266  0.00  0.00    +0.029 C 
ATOM     20  C   UNL     1       5.086  -4.197  82.579  0.00  0.00    -0.019 C 
ATOM     21  C   UNL     1       5.115  -3.213  83.592  0.00  0.00    +0.053 C 
ATOM     22  C   UNL     1       5.555  -1.907  83.305  0.00  0.00    -0.004 C 
ATOM     23  C   UNL     1       5.965  -1.599  81.990  0.00  0.00    +0.085 C 
ATOM     24  C   UNL     1       7.194   1.796  81.068  0.00  0.00    +0.139 C 
ENDROOT
BRANCH   4   5
ATOM      5  C   UNL     1       6.383   2.519  85.107  0.00  0.00    +0.086 A 
ATOM      6  C   UNL     1       6.008   3.806  85.554  0.00  0.00    +0.012 A 
ATOM      7  C   UNL     1       5.759   4.035  86.921  0.00  0.00    +0.001 A 
ATOM      8  C   UNL     1       5.866   2.978  87.842  0.00  0.00    +0.000 A 
ATOM      9  C   UNL     1       6.238   1.694  87.403  0.00  0.00    +0.001 A 
ATOM     10  C   UNL     1       6.506   1.466  86.042  0.00  0.00    +0.012 A 
ENDBRANCH   4   5
TORSDOF 1
ENDMDL
MODEL 19
REMARK VINA RESULT:      -7.8     22.675     24.537
REMARK  Name = H:\Org. chem candidate structure\str-2\Str2-3D.pdb
REMARK  1 active torsions:
REMARK  status: ('A' for Active; 'I' for Inactive)
REMARK    1  A    between atoms: _18  and  _23
REMARK                            x       y       z     vdW  Elec       q    Type
REMARK                         _______ _______ _______ _____ _____    ______ ____
ROOT
ATOM      1  C   UNL     1      -6.781  11.137  65.413  0.00  0.00    +0.063 C 
ATOM      2  C   UNL     1      -5.933  11.375  64.220  0.00  0.00    +0.111 C 
ATOM      3  N   UNL     1      -5.049  12.403  64.309  0.00  0.00    -0.348 NA
ATOM      4  C   UNL     1      -4.192  12.721  63.308  0.00  0.00    +0.138 C 
ATOM     11  N   UNL     1      -4.213  11.995  62.168  0.00  0.00    -0.328 NA
ATOM     12  C   UNL     1      -5.075  10.967  61.975  0.00  0.00    +0.192 C 
ATOM     13  N   UNL     1      -5.090  10.269  60.799  0.00  0.00    -0.216 N 
ATOM     14  C   UNL     1      -5.939   9.234  60.584  0.00  0.00    +0.192 C 
ATOM     15  C   UNL     1      -6.858   8.836  61.567  0.00  0.00    +0.045 C 
ATOM     16  C   UNL     1      -6.875   9.540  62.785  0.00  0.00    -0.007 C 
ATOM     17  N   UNL     1      -5.782   8.694  59.361  0.00  0.00    -0.385 NA
ATOM     18  C   UNL     1      -4.810   9.412  58.782  0.00  0.00    +0.146 C 
ATOM     19  C   UNL     1      -4.261   9.274  57.497  0.00  0.00    +0.029 C 
ATOM     20  C   UNL     1      -3.242  10.167  57.107  0.00  0.00    -0.019 C 
ATOM     21  C   UNL     1      -2.790  11.174  57.989  0.00  0.00    +0.053 C 
ATOM     22  C   UNL     1      -3.351  11.298  59.275  0.00  0.00    -0.004 C 
ATOM     23  C   UNL     1      -4.369  10.402  59.666  0.00  0.00    +0.085 C 
ATOM     24  C   UNL     1      -5.985  10.617  63.016  0.00  0.00    +0.139 C 
ENDROOT
BRANCH   4   5
ATOM      5  C   UNL     1      -3.292  13.790  63.435  0.00  0.00    +0.086 A 
ATOM      6  C   UNL     1      -3.309  14.605  64.590  0.00  0.00    +0.012 A 
ATOM      7  C   UNL     1      -2.416  15.687  64.705  0.00  0.00    +0.001 A 
ATOM      8  C   UNL     1      -1.491  15.948  63.678  0.00  0.00    +0.000 A 
ATOM      9  C   UNL     1      -1.469  15.140  62.526  0.00  0.00    +0.001 A 
ATOM     10  C   UNL     1      -2.373  14.071  62.399  0.00  0.00    +0.012 A 
ENDBRANCH   4   5
TORSDOF 1
ENDMDL
MODEL 20
REMARK VINA RESULT:      -7.8      3.142      8.040
REMARK  Name = H:\Org. chem candidate structure\str-2\Str2-3D.pdb
REMARK  1 active torsions:
REMARK  status: ('A' for Active; 'I' for Inactive)
REMARK    1  A    between atoms: _18  and  _23
REMARK                            x       y       z     vdW  Elec       q    Type
REMARK                         _______ _______ _______ _____ _____    ______ ____
ROOT
ATOM      1  C   UNL     1       3.904  -3.997  78.930  0.00  0.00    +0.063 C 
ATOM      2  C   UNL     1       4.603  -3.378  80.082  0.00  0.00    +0.111 C 
ATOM      3  N   UNL     1       5.163  -2.161  79.860  0.00  0.00    -0.348 NA
ATOM      4  C   UNL     1       5.811  -1.464  80.825  0.00  0.00    +0.138 C 
ATOM     11  N   UNL     1       5.914  -1.996  82.064  0.00  0.00    -0.328 NA
ATOM     12  C   UNL     1       5.410  -3.215  82.377  0.00  0.00    +0.192 C 
ATOM     13  N   UNL     1       5.554  -3.738  83.632  0.00  0.00    -0.216 N 
ATOM     14  C   UNL     1       5.055  -4.952  83.971  0.00  0.00    +0.192 C 
ATOM     15  C   UNL     1       4.369  -5.739  83.034  0.00  0.00    +0.045 C 
ATOM     16  C   UNL     1       4.210  -5.234  81.730  0.00  0.00    -0.007 C 
ATOM     17  N   UNL     1       5.313  -5.267  85.254  0.00  0.00    -0.385 NA
ATOM     18  C   UNL     1       6.002  -4.226  85.740  0.00  0.00    +0.146 C 
ATOM     19  C   UNL     1       6.526  -4.043  87.029  0.00  0.00    +0.029 C 
ATOM     20  C   UNL     1       7.232  -2.852  87.301  0.00  0.00    -0.019 C 
ATOM     21  C   UNL     1       7.406  -1.874  86.297  0.00  0.00    +0.053 C 
ATOM     22  C   UNL     1       6.873  -2.072  85.009  0.00  0.00    -0.004 C 
ATOM     23  C   UNL     1       6.164  -3.263  84.739  0.00  0.00    +0.085 C 
ATOM     24  C   UNL     1       4.725  -3.963  81.374  0.00  0.00    +0.139 C 
ENDROOT
BRANCH   4   5
ATOM      5  C   UNL     1       6.378  -0.208  80.558  0.00  0.00    +0.086 A 
ATOM      6  C   UNL     1       5.743   0.688  79.670  0.00  0.00    +0.012 A 
ATOM      7  C   UNL     1       6.325   1.939  79.392  0.00  0.00    +0.001 A 
ATOM      8  C   UNL     1       7.531   2.308  80.014  0.00  0.00    +0.000 A 
ATOM      9  C   UNL     1       8.168   1.420  80.901  0.00  0.00    +0.001 A 
ATOM     10  C   UNL     1       7.599   0.162  81.166  0.00  0.00    +0.012 A 
ENDBRANCH   4   5
TORSDOF 1
ENDMDL
