MODEL 1
REMARK VINA RESULT:      -9.2      0.000      0.000
REMARK  Name = H:\Org. chem candidate structure\str-2\Str2-3D.pdb
REMARK  1 active torsions:
REMARK  status: ('A' for Active; 'I' for Inactive)
REMARK    1  A    between atoms: _18  and  _23
REMARK                            x       y       z     vdW  Elec       q    Type
REMARK                         _______ _______ _______ _____ _____    ______ ____
ROOT
ATOM      1  C   UNL     1       6.607   0.399  84.215  0.00  0.00    +0.063 C 
ATOM      2  C   UNL     1       6.693   0.480  82.737  0.00  0.00    +0.111 C 
ATOM      3  N   UNL     1       6.352  -0.645  82.055  0.00  0.00    -0.348 NA
ATOM      4  C   UNL     1       6.358  -0.711  80.701  0.00  0.00    +0.138 C 
ATOM     11  N   UNL     1       6.722   0.380  79.991  0.00  0.00    -0.328 NA
ATOM     12  C   UNL     1       7.103   1.539  80.580  0.00  0.00    +0.192 C 
ATOM     13  N   UNL     1       7.493   2.617  79.834  0.00  0.00    -0.216 N 
ATOM     14  C   UNL     1       7.874   3.788  80.400  0.00  0.00    +0.192 C 
ATOM     15  C   UNL     1       7.895   3.945  81.794  0.00  0.00    +0.045 C 
ATOM     16  C   UNL     1       7.509   2.852  82.592  0.00  0.00    -0.007 C 
ATOM     17  N   UNL     1       8.215   4.710  79.480  0.00  0.00    -0.385 NA
ATOM     18  C   UNL     1       8.053   4.102  78.297  0.00  0.00    +0.146 C 
ATOM     19  C   UNL     1       8.278   4.611  77.009  0.00  0.00    +0.029 C 
ATOM     20  C   UNL     1       8.043   3.765  75.905  0.00  0.00    -0.019 C 
ATOM     21  C   UNL     1       7.594   2.440  76.097  0.00  0.00    +0.053 C 
ATOM     22  C   UNL     1       7.372   1.944  77.396  0.00  0.00    -0.004 C 
ATOM     23  C   UNL     1       7.605   2.793  78.500  0.00  0.00    +0.085 C 
ATOM     24  C   UNL     1       7.104   1.628  82.004  0.00  0.00    +0.139 C 
ENDROOT
BRANCH   4   5
ATOM      5  C   UNL     1       5.998  -1.890  80.030  0.00  0.00    +0.086 A 
ATOM      6  C   UNL     1       4.645  -2.288  79.960  0.00  0.00    +0.012 A 
ATOM      7  C   UNL     1       4.291  -3.480  79.301  0.00  0.00    +0.001 A 
ATOM      8  C   UNL     1       5.285  -4.270  78.694  0.00  0.00    +0.000 A 
ATOM      9  C   UNL     1       6.635  -3.878  78.760  0.00  0.00    +0.001 A 
ATOM     10  C   UNL     1       6.993  -2.697  79.434  0.00  0.00    +0.012 A 
ENDBRANCH   4   5
TORSDOF 1
ENDMDL
MODEL 2
REMARK VINA RESULT:      -8.7     22.607     24.341
REMARK  Name = H:\Org. chem candidate structure\str-2\Str2-3D.pdb
REMARK  1 active torsions:
REMARK  status: ('A' for Active; 'I' for Inactive)
REMARK    1  A    between atoms: _18  and  _23
REMARK                            x       y       z     vdW  Elec       q    Type
REMARK                         _______ _______ _______ _____ _____    ______ ____
ROOT
ATOM      1  C   UNL     1      -1.887  15.392  60.009  0.00  0.00    +0.063 C 
ATOM      2  C   UNL     1      -2.668  14.313  60.659  0.00  0.00    +0.111 C 
ATOM      3  N   UNL     1      -2.696  13.119  60.011  0.00  0.00    -0.348 NA
ATOM      4  C   UNL     1      -3.348  12.035  60.498  0.00  0.00    +0.138 C 
ATOM     11  N   UNL     1      -4.004  12.136  61.676  0.00  0.00    -0.328 NA
ATOM     12  C   UNL     1      -4.055  13.290  62.384  0.00  0.00    +0.192 C 
ATOM     13  N   UNL     1      -4.750  13.368  63.559  0.00  0.00    -0.216 N 
ATOM     14  C   UNL     1      -4.812  14.510  64.288  0.00  0.00    +0.192 C 
ATOM     15  C   UNL     1      -4.165  15.678  63.859  0.00  0.00    +0.045 C 
ATOM     16  C   UNL     1      -3.448  15.635  62.649  0.00  0.00    -0.007 C 
ATOM     17  N   UNL     1      -5.549  14.360  65.406  0.00  0.00    -0.385 NA
ATOM     18  C   UNL     1      -5.972  13.089  65.379  0.00  0.00    +0.146 C 
ATOM     19  C   UNL     1      -6.784  12.413  66.304  0.00  0.00    +0.029 C 
ATOM     20  C   UNL     1      -7.105  11.064  66.049  0.00  0.00    -0.019 C 
ATOM     21  C   UNL     1      -6.622  10.414  64.892  0.00  0.00    +0.053 C 
ATOM     22  C   UNL     1      -5.809  11.106  63.974  0.00  0.00    -0.004 C 
ATOM     23  C   UNL     1      -5.484  12.456  64.231  0.00  0.00    +0.085 C 
ATOM     24  C   UNL     1      -3.376  14.443  61.887  0.00  0.00    +0.139 C 
ENDROOT
BRANCH   4   5
ATOM      5  C   UNL     1      -3.355  10.818  59.800  0.00  0.00    +0.086 A 
ATOM      6  C   UNL     1      -3.167  10.796  58.400  0.00  0.00    +0.012 A 
ATOM      7  C   UNL     1      -3.193   9.574  57.702  0.00  0.00    +0.001 A 
ATOM      8  C   UNL     1      -3.386   8.368  58.401  0.00  0.00    +0.000 A 
ATOM      9  C   UNL     1      -3.573   8.384  59.796  0.00  0.00    +0.001 A 
ATOM     10  C   UNL     1      -3.567   9.605  60.493  0.00  0.00    +0.012 A 
ENDBRANCH   4   5
TORSDOF 1
ENDMDL
MODEL 3
REMARK VINA RESULT:      -8.7     22.690     25.303
REMARK  Name = H:\Org. chem candidate structure\str-2\Str2-3D.pdb
REMARK  1 active torsions:
REMARK  status: ('A' for Active; 'I' for Inactive)
REMARK    1  A    between atoms: _18  and  _23
REMARK                            x       y       z     vdW  Elec       q    Type
REMARK                         _______ _______ _______ _____ _____    ______ ____
ROOT
ATOM      1  C   UNL     1      -7.743   8.806  62.010  0.00  0.00    +0.063 C 
ATOM      2  C   UNL     1      -6.705   9.569  61.277  0.00  0.00    +0.111 C 
ATOM      3  N   UNL     1      -6.716   9.449  59.923  0.00  0.00    -0.348 NA
ATOM      4  C   UNL     1      -5.844  10.108  59.121  0.00  0.00    +0.138 C 
ATOM     11  N   UNL     1      -4.918  10.918  59.682  0.00  0.00    -0.328 NA
ATOM     12  C   UNL     1      -4.811  11.083  61.022  0.00  0.00    +0.192 C 
ATOM     13  N   UNL     1      -3.845  11.889  61.560  0.00  0.00    -0.216 N 
ATOM     14  C   UNL     1      -3.721  12.075  62.897  0.00  0.00    +0.192 C 
ATOM     15  C   UNL     1      -4.583  11.433  63.800  0.00  0.00    +0.045 C 
ATOM     16  C   UNL     1      -5.582  10.590  63.280  0.00  0.00    -0.007 C 
ATOM     17  N   UNL     1      -2.706  12.905  63.203  0.00  0.00    -0.385 NA
ATOM     18  C   UNL     1      -2.167  13.248  62.025  0.00  0.00    +0.146 C 
ATOM     19  C   UNL     1      -1.072  14.089  61.772  0.00  0.00    +0.029 C 
ATOM     20  C   UNL     1      -0.681  14.291  60.432  0.00  0.00    -0.019 C 
ATOM     21  C   UNL     1      -1.375  13.659  59.377  0.00  0.00    +0.053 C 
ATOM     22  C   UNL     1      -2.472  12.819  59.648  0.00  0.00    -0.004 C 
ATOM     23  C   UNL     1      -2.865  12.620  60.989  0.00  0.00    +0.085 C 
ATOM     24  C   UNL     1      -5.719  10.398  61.883  0.00  0.00    +0.139 C 
ENDROOT
BRANCH   4   5
ATOM      5  C   UNL     1      -5.885   9.958  57.727  0.00  0.00    +0.086 A 
ATOM      6  C   UNL     1      -6.784  10.725  56.952  0.00  0.00    +0.012 A 
ATOM      7  C   UNL     1      -6.834  10.559  55.555  0.00  0.00    +0.001 A 
ATOM      8  C   UNL     1      -5.974   9.641  54.925  0.00  0.00    +0.000 A 
ATOM      9  C   UNL     1      -5.076   8.875  55.691  0.00  0.00    +0.001 A 
ATOM     10  C   UNL     1      -5.038   9.025  57.088  0.00  0.00    +0.012 A 
ENDBRANCH   4   5
TORSDOF 1
ENDMDL
MODEL 4
REMARK VINA RESULT:      -8.5     23.390     25.114
REMARK  Name = H:\Org. chem candidate structure\str-2\Str2-3D.pdb
REMARK  1 active torsions:
REMARK  status: ('A' for Active; 'I' for Inactive)
REMARK    1  A    between atoms: _18  and  _23
REMARK                            x       y       z     vdW  Elec       q    Type
REMARK                         _______ _______ _______ _____ _____    ______ ____
ROOT
ATOM      1  C   UNL     1      -0.383  14.097  59.835  0.00  0.00    +0.063 C 
ATOM      2  C   UNL     1      -1.680  13.457  60.162  0.00  0.00    +0.111 C 
ATOM      3  N   UNL     1      -2.210  12.654  59.203  0.00  0.00    -0.348 NA
ATOM      4  C   UNL     1      -3.376  11.983  59.371  0.00  0.00    +0.138 C 
ATOM     11  N   UNL     1      -4.049  12.115  60.536  0.00  0.00    -0.328 NA
ATOM     12  C   UNL     1      -3.615  12.913  61.541  0.00  0.00    +0.192 C 
ATOM     13  N   UNL     1      -4.333  13.047  62.697  0.00  0.00    -0.216 N 
ATOM     14  C   UNL     1      -3.917  13.835  63.719  0.00  0.00    +0.192 C 
ATOM     15  C   UNL     1      -2.721  14.563  63.631  0.00  0.00    +0.045 C 
ATOM     16  C   UNL     1      -1.962  14.454  62.451  0.00  0.00    -0.007 C 
ATOM     17  N   UNL     1      -4.777  13.818  64.756  0.00  0.00    -0.385 NA
ATOM     18  C   UNL     1      -5.770  13.003  64.375  0.00  0.00    +0.146 C 
ATOM     19  C   UNL     1      -6.929  12.642  65.080  0.00  0.00    +0.029 C 
ATOM     20  C   UNL     1      -7.843  11.766  64.458  0.00  0.00    -0.019 C 
ATOM     21  C   UNL     1      -7.594  11.269  63.160  0.00  0.00    +0.053 C 
ATOM     22  C   UNL     1      -6.425  11.640  62.467  0.00  0.00    -0.004 C 
ATOM     23  C   UNL     1      -5.510  12.515  63.091  0.00  0.00    +0.085 C 
ATOM     24  C   UNL     1      -2.390  13.628  61.383  0.00  0.00    +0.139 C 
ENDROOT
BRANCH   4   5
ATOM      5  C   UNL     1      -3.893  11.161  58.358  0.00  0.00    +0.086 A 
ATOM      6  C   UNL     1      -3.030  10.360  57.577  0.00  0.00    +0.012 A 
ATOM      7  C   UNL     1      -3.552   9.551  56.550  0.00  0.00    +0.001 A 
ATOM      8  C   UNL     1      -4.938   9.524  56.312  0.00  0.00    +0.000 A 
ATOM      9  C   UNL     1      -5.803  10.319  57.086  0.00  0.00    +0.001 A 
ATOM     10  C   UNL     1      -5.282  11.143  58.100  0.00  0.00    +0.012 A 
ENDBRANCH   4   5
TORSDOF 1
ENDMDL
MODEL 5
REMARK VINA RESULT:      -8.4     28.029     29.596
REMARK  Name = H:\Org. chem candidate structure\str-2\Str2-3D.pdb
REMARK  1 active torsions:
REMARK  status: ('A' for Active; 'I' for Inactive)
REMARK    1  A    between atoms: _18  and  _23
REMARK                            x       y       z     vdW  Elec       q    Type
REMARK                         _______ _______ _______ _____ _____    ______ ____
ROOT
ATOM      1  C   UNL     1     -13.059 -16.688  72.483  0.00  0.00    +0.063 C 
ATOM      2  C   UNL     1     -12.988 -17.028  71.042  0.00  0.00    +0.111 C 
ATOM      3  N   UNL     1     -12.532 -18.273  70.742  0.00  0.00    -0.348 NA
ATOM      4  C   UNL     1     -12.438 -18.733  69.470  0.00  0.00    +0.138 C 
ATOM     11  N   UNL     1     -12.805 -17.925  68.450  0.00  0.00    -0.328 NA
ATOM     12  C   UNL     1     -13.247 -16.659  68.646  0.00  0.00    +0.192 C 
ATOM     13  N   UNL     1     -13.584 -15.857  67.591  0.00  0.00    -0.216 N 
ATOM     14  C   UNL     1     -14.033 -14.590  67.761  0.00  0.00    +0.192 C 
ATOM     15  C   UNL     1     -14.164 -14.035  69.043  0.00  0.00    +0.045 C 
ATOM     16  C   UNL     1     -13.816 -14.830  70.151  0.00  0.00    -0.007 C 
ATOM     17  N   UNL     1     -14.305 -13.985  66.589  0.00  0.00    -0.385 NA
ATOM     18  C   UNL     1     -14.012 -14.893  65.649  0.00  0.00    +0.146 C 
ATOM     19  C   UNL     1     -14.105 -14.776  64.254  0.00  0.00    +0.029 C 
ATOM     20  C   UNL     1     -13.724 -15.880  63.463  0.00  0.00    -0.019 C 
ATOM     21  C   UNL     1     -13.260 -17.070  64.066  0.00  0.00    +0.053 C 
ATOM     22  C   UNL     1     -13.173 -17.173  65.467  0.00  0.00    -0.004 C 
ATOM     23  C   UNL     1     -13.557 -16.068  66.258  0.00  0.00    +0.085 C 
ATOM     24  C   UNL     1     -13.353 -16.157  69.978  0.00  0.00    +0.139 C 
ENDROOT
BRANCH   4   5
ATOM      5  C   UNL     1     -11.963 -20.025  69.199  0.00  0.00    +0.086 A 
ATOM      6  C   UNL     1     -12.290 -20.666  67.983  0.00  0.00    +0.012 A 
ATOM      7  C   UNL     1     -11.825 -21.969  67.723  0.00  0.00    +0.001 A 
ATOM      8  C   UNL     1     -11.018 -22.629  68.667  0.00  0.00    +0.000 A 
ATOM      9  C   UNL     1     -10.689 -21.996  69.880  0.00  0.00    +0.001 A 
ATOM     10  C   UNL     1     -11.167 -20.702  70.150  0.00  0.00    +0.012 A 
ENDBRANCH   4   5
TORSDOF 1
ENDMDL
MODEL 6
REMARK VINA RESULT:      -8.4     22.318     24.626
REMARK  Name = H:\Org. chem candidate structure\str-2\Str2-3D.pdb
REMARK  1 active torsions:
REMARK  status: ('A' for Active; 'I' for Inactive)
REMARK    1  A    between atoms: _18  and  _23
REMARK                            x       y       z     vdW  Elec       q    Type
REMARK                         _______ _______ _______ _____ _____    ______ ____
ROOT
ATOM      1  C   UNL     1      -0.800  14.807  59.017  0.00  0.00    +0.063 C 
ATOM      2  C   UNL     1      -1.577  14.318  60.180  0.00  0.00    +0.111 C 
ATOM      3  N   UNL     1      -1.441  15.026  61.332  0.00  0.00    -0.348 NA
ATOM      4  C   UNL     1      -2.110  14.712  62.469  0.00  0.00    +0.138 C 
ATOM     11  N   UNL     1      -2.946  13.650  62.468  0.00  0.00    -0.328 NA
ATOM     12  C   UNL     1      -3.129  12.867  61.377  0.00  0.00    +0.192 C 
ATOM     13  N   UNL     1      -3.961  11.783  61.417  0.00  0.00    -0.216 N 
ATOM     14  C   UNL     1      -4.164  10.988  60.337  0.00  0.00    +0.192 C 
ATOM     15  C   UNL     1      -3.514  11.242  59.120  0.00  0.00    +0.045 C 
ATOM     16  C   UNL     1      -2.643  12.345  59.048  0.00  0.00    -0.007 C 
ATOM     17  N   UNL     1      -5.019   9.982  60.601  0.00  0.00    -0.385 NA
ATOM     18  C   UNL     1      -5.361  10.139  61.886  0.00  0.00    +0.146 C 
ATOM     19  C   UNL     1      -6.223   9.355  62.669  0.00  0.00    +0.029 C 
ATOM     20  C   UNL     1      -6.418   9.720  64.017  0.00  0.00    -0.019 C 
ATOM     21  C   UNL     1      -5.761  10.846  64.561  0.00  0.00    +0.053 C 
ATOM     22  C   UNL     1      -4.900  11.622  63.762  0.00  0.00    -0.004 C 
ATOM     23  C   UNL     1      -4.707  11.258  62.412  0.00  0.00    +0.085 C 
ATOM     24  C   UNL     1      -2.433  13.181  60.171  0.00  0.00    +0.139 C 
ENDROOT
BRANCH   4   5
ATOM      5  C   UNL     1      -1.945  15.467  63.640  0.00  0.00    +0.086 A 
ATOM      6  C   UNL     1      -1.777  16.868  63.570  0.00  0.00    +0.012 A 
ATOM      7  C   UNL     1      -1.594  17.618  64.747  0.00  0.00    +0.001 A 
ATOM      8  C   UNL     1      -1.597  16.976  65.998  0.00  0.00    +0.000 A 
ATOM      9  C   UNL     1      -1.764  15.580  66.075  0.00  0.00    +0.001 A 
ATOM     10  C   UNL     1      -1.928  14.826  64.900  0.00  0.00    +0.012 A 
ENDBRANCH   4   5
TORSDOF 1
ENDMDL
MODEL 7
REMARK VINA RESULT:      -8.4     22.376     24.377
REMARK  Name = H:\Org. chem candidate structure\str-2\Str2-3D.pdb
REMARK  1 active torsions:
REMARK  status: ('A' for Active; 'I' for Inactive)
REMARK    1  A    between atoms: _18  and  _23
REMARK                            x       y       z     vdW  Elec       q    Type
REMARK                         _______ _______ _______ _____ _____    ______ ____
ROOT
ATOM      1  C   UNL     1      -2.177  15.432  63.330  0.00  0.00    +0.063 C 
ATOM      2  C   UNL     1      -2.941  14.235  62.904  0.00  0.00    +0.111 C 
ATOM      3  N   UNL     1      -3.833  13.741  63.803  0.00  0.00    -0.348 NA
ATOM      4  C   UNL     1      -4.619  12.669  63.542  0.00  0.00    +0.138 C 
ATOM     11  N   UNL     1      -4.517  12.054  62.342  0.00  0.00    -0.328 NA
ATOM     12  C   UNL     1      -3.639  12.455  61.391  0.00  0.00    +0.192 C 
ATOM     13  N   UNL     1      -3.540  11.795  60.197  0.00  0.00    -0.216 N 
ATOM     14  C   UNL     1      -2.674  12.180  59.228  0.00  0.00    +0.192 C 
ATOM     15  C   UNL     1      -1.824  13.282  59.413  0.00  0.00    +0.045 C 
ATOM     16  C   UNL     1      -1.894  13.978  60.634  0.00  0.00    -0.007 C 
ATOM     17  N   UNL     1      -2.744  11.390  58.140  0.00  0.00    -0.385 NA
ATOM     18  C   UNL     1      -3.675  10.473  58.433  0.00  0.00    +0.146 C 
ATOM     19  C   UNL     1      -4.133   9.403  57.647  0.00  0.00    +0.029 C 
ATOM     20  C   UNL     1      -5.126   8.557  58.183  0.00  0.00    -0.019 C 
ATOM     21  C   UNL     1      -5.642   8.784  59.478  0.00  0.00    +0.053 C 
ATOM     22  C   UNL     1      -5.173   9.861  60.253  0.00  0.00    -0.004 C 
ATOM     23  C   UNL     1      -4.181  10.710  59.715  0.00  0.00    +0.085 C 
ATOM     24  C   UNL     1      -2.802  13.583  61.647  0.00  0.00    +0.139 C 
ENDROOT
BRANCH   4   5
ATOM      5  C   UNL     1      -5.530  12.187  64.495  0.00  0.00    +0.086 A 
ATOM      6  C   UNL     1      -6.173  13.078  65.383  0.00  0.00    +0.012 A 
ATOM      7  C   UNL     1      -7.072  12.588  66.348  0.00  0.00    +0.001 A 
ATOM      8  C   UNL     1      -7.347  11.210  66.419  0.00  0.00    +0.000 A 
ATOM      9  C   UNL     1      -6.710  10.318  65.537  0.00  0.00    +0.001 A 
ATOM     10  C   UNL     1      -5.796  10.802  64.584  0.00  0.00    +0.012 A 
ENDBRANCH   4   5
TORSDOF 1
ENDMDL
MODEL 8
REMARK VINA RESULT:      -8.3      1.929      6.399
REMARK  Name = H:\Org. chem candidate structure\str-2\Str2-3D.pdb
REMARK  1 active torsions:
REMARK  status: ('A' for Active; 'I' for Inactive)
REMARK    1  A    between atoms: _18  and  _23
REMARK                            x       y       z     vdW  Elec       q    Type
REMARK                         _______ _______ _______ _____ _____    ______ ____
ROOT
ATOM      1  C   UNL     1       7.893  -2.551  79.877  0.00  0.00    +0.063 C 
ATOM      2  C   UNL     1       7.683  -1.219  80.494  0.00  0.00    +0.111 C 
ATOM      3  N   UNL     1       7.797  -0.149  79.665  0.00  0.00    -0.348 NA
ATOM      4  C   UNL     1       7.605   1.126  80.082  0.00  0.00    +0.138 C 
ATOM     11  N   UNL     1       7.292   1.354  81.377  0.00  0.00    -0.328 NA
ATOM     12  C   UNL     1       7.180   0.356  82.286  0.00  0.00    +0.192 C 
ATOM     13  N   UNL     1       6.889   0.621  83.596  0.00  0.00    -0.216 N 
ATOM     14  C   UNL     1       6.768  -0.361  84.523  0.00  0.00    +0.192 C 
ATOM     15  C   UNL     1       6.947  -1.708  84.177  0.00  0.00    +0.045 C 
ATOM     16  C   UNL     1       7.257  -2.016  82.839  0.00  0.00    -0.007 C 
ATOM     17  N   UNL     1       6.479   0.127  85.744  0.00  0.00    -0.385 NA
ATOM     18  C   UNL     1       6.423   1.456  85.588  0.00  0.00    +0.146 C 
ATOM     19  C   UNL     1       6.164   2.445  86.550  0.00  0.00    +0.029 C 
ATOM     20  C   UNL     1       6.170   3.794  86.140  0.00  0.00    -0.019 C 
ATOM     21  C   UNL     1       6.432   4.137  84.795  0.00  0.00    +0.053 C 
ATOM     22  C   UNL     1       6.689   3.133  83.842  0.00  0.00    -0.004 C 
ATOM     23  C   UNL     1       6.680   1.782  84.252  0.00  0.00    +0.085 C 
ATOM     24  C   UNL     1       7.379  -0.994  81.866  0.00  0.00    +0.139 C 
ENDROOT
BRANCH   4   5
ATOM      5  C   UNL     1       7.731   2.207  79.196  0.00  0.00    +0.086 A 
ATOM      6  C   UNL     1       7.338   2.074  77.846  0.00  0.00    +0.012 A 
ATOM      7  C   UNL     1       7.483   3.155  76.957  0.00  0.00    +0.001 A 
ATOM      8  C   UNL     1       8.003   4.379  77.416  0.00  0.00    +0.000 A 
ATOM      9  C   UNL     1       8.396   4.518  78.760  0.00  0.00    +0.001 A 
ATOM     10  C   UNL     1       8.270   3.433  79.646  0.00  0.00    +0.012 A 
ENDBRANCH   4   5
TORSDOF 1
ENDMDL
MODEL 9
REMARK VINA RESULT:      -8.2     27.771     30.178
REMARK  Name = H:\Org. chem candidate structure\str-2\Str2-3D.pdb
REMARK  1 active torsions:
REMARK  status: ('A' for Active; 'I' for Inactive)
REMARK    1  A    between atoms: _18  and  _23
REMARK                            x       y       z     vdW  Elec       q    Type
REMARK                         _______ _______ _______ _____ _____    ______ ____
ROOT
ATOM      1  C   UNL     1     -13.930 -13.796  70.198  0.00  0.00    +0.063 C 
ATOM      2  C   UNL     1     -13.654 -15.063  69.480  0.00  0.00    +0.111 C 
ATOM      3  N   UNL     1     -13.755 -15.020  68.126  0.00  0.00    -0.348 NA
ATOM      4  C   UNL     1     -13.506 -16.094  67.337  0.00  0.00    +0.138 C 
ATOM     11  N   UNL     1     -13.145 -17.263  67.913  0.00  0.00    -0.328 NA
ATOM     12  C   UNL     1     -13.041 -17.413  69.255  0.00  0.00    +0.192 C 
ATOM     13  N   UNL     1     -12.701 -18.616  69.808  0.00  0.00    -0.216 N 
ATOM     14  C   UNL     1     -12.586 -18.790  71.148  0.00  0.00    +0.192 C 
ATOM     15  C   UNL     1     -12.824 -17.731  72.037  0.00  0.00    +0.045 C 
ATOM     16  C   UNL     1     -13.186 -16.481  71.502  0.00  0.00    -0.007 C 
ATOM     17  N   UNL     1     -12.242 -20.051  71.469  0.00  0.00    -0.385 NA
ATOM     18  C   UNL     1     -12.145 -20.697  70.300  0.00  0.00    +0.146 C 
ATOM     19  C   UNL     1     -11.821 -22.042  70.063  0.00  0.00    +0.029 C 
ATOM     20  C   UNL     1     -11.792 -22.497  68.728  0.00  0.00    -0.019 C 
ATOM     21  C   UNL     1     -12.082 -21.619  67.662  0.00  0.00    +0.053 C 
ATOM     22  C   UNL     1     -12.404 -20.271  67.916  0.00  0.00    -0.004 C 
ATOM     23  C   UNL     1     -12.431 -19.816  69.252  0.00  0.00    +0.085 C 
ATOM     24  C   UNL     1     -13.300 -16.294  70.102  0.00  0.00    +0.139 C 
ENDROOT
BRANCH   4   5
ATOM      5  C   UNL     1     -13.621 -16.012  65.941  0.00  0.00    +0.086 A 
ATOM      6  C   UNL     1     -13.127 -17.051  65.121  0.00  0.00    +0.012 A 
ATOM      7  C   UNL     1     -13.230 -16.955  63.720  0.00  0.00    +0.001 A 
ATOM      8  C   UNL     1     -13.841 -15.832  63.135  0.00  0.00    +0.000 A 
ATOM      9  C   UNL     1     -14.335 -14.794  63.946  0.00  0.00    +0.001 A 
ATOM     10  C   UNL     1     -14.217 -14.878  65.345  0.00  0.00    +0.012 A 
ENDBRANCH   4   5
TORSDOF 1
ENDMDL
MODEL 10
REMARK VINA RESULT:      -8.2     22.589     23.695
REMARK  Name = H:\Org. chem candidate structure\str-2\Str2-3D.pdb
REMARK  1 active torsions:
REMARK  status: ('A' for Active; 'I' for Inactive)
REMARK    1  A    between atoms: _18  and  _23
REMARK                            x       y       z     vdW  Elec       q    Type
REMARK                         _______ _______ _______ _____ _____    ______ ____
ROOT
ATOM      1  C   UNL     1      -5.650   8.957  62.215  0.00  0.00    +0.063 C 
ATOM      2  C   UNL     1      -5.235  10.288  62.718  0.00  0.00    +0.111 C 
ATOM      3  N   UNL     1      -4.272  10.926  62.002  0.00  0.00    -0.348 NA
ATOM      4  C   UNL     1      -3.813  12.159  62.326  0.00  0.00    +0.138 C 
ATOM     11  N   UNL     1      -4.323  12.787  63.409  0.00  0.00    -0.328 NA
ATOM     12  C   UNL     1      -5.267  12.223  64.201  0.00  0.00    +0.192 C 
ATOM     13  N   UNL     1      -5.744  12.873  65.305  0.00  0.00    -0.216 N 
ATOM     14  C   UNL     1      -6.691  12.332  66.110  0.00  0.00    +0.192 C 
ATOM     15  C   UNL     1      -7.224  11.061  65.846  0.00  0.00    +0.045 C 
ATOM     16  C   UNL     1      -6.749  10.361  64.722  0.00  0.00    -0.007 C 
ATOM     17  N   UNL     1      -7.011  13.144  67.136  0.00  0.00    -0.385 NA
ATOM     18  C   UNL     1      -6.237  14.226  66.981  0.00  0.00    +0.146 C 
ATOM     19  C   UNL     1      -6.164  15.377  67.782  0.00  0.00    +0.029 C 
ATOM     20  C   UNL     1      -5.254  16.389  67.416  0.00  0.00    -0.019 C 
ATOM     21  C   UNL     1      -4.438  16.245  66.272  0.00  0.00    +0.053 C 
ATOM     22  C   UNL     1      -4.524  15.085  65.478  0.00  0.00    -0.004 C 
ATOM     23  C   UNL     1      -5.438  14.073  65.843  0.00  0.00    +0.085 C 
ATOM     24  C   UNL     1      -5.763  10.926  63.875  0.00  0.00    +0.139 C 
ENDROOT
BRANCH   4   5
ATOM      5  C   UNL     1      -2.817  12.787  61.562  0.00  0.00    +0.086 A 
ATOM      6  C   UNL     1      -2.876  12.761  60.151  0.00  0.00    +0.012 A 
ATOM      7  C   UNL     1      -1.865  13.377  59.389  0.00  0.00    +0.001 A 
ATOM      8  C   UNL     1      -0.803  14.038  60.033  0.00  0.00    +0.000 A 
ATOM      9  C   UNL     1      -0.740  14.068  61.438  0.00  0.00    +0.001 A 
ATOM     10  C   UNL     1      -1.737  13.437  62.201  0.00  0.00    +0.012 A 
ENDBRANCH   4   5
TORSDOF 1
ENDMDL
MODEL 11
REMARK VINA RESULT:      -8.2      2.779      5.300
REMARK  Name = H:\Org. chem candidate structure\str-2\Str2-3D.pdb
REMARK  1 active torsions:
REMARK  status: ('A' for Active; 'I' for Inactive)
REMARK    1  A    between atoms: _18  and  _23
REMARK                            x       y       z     vdW  Elec       q    Type
REMARK                         _______ _______ _______ _____ _____    ______ ____
ROOT
ATOM      1  C   UNL     1       7.398  -3.076  79.307  0.00  0.00    +0.063 C 
ATOM      2  C   UNL     1       7.030  -2.317  80.526  0.00  0.00    +0.111 C 
ATOM      3  N   UNL     1       6.590  -3.053  81.581  0.00  0.00    -0.348 NA
ATOM      4  C   UNL     1       6.244  -2.499  82.768  0.00  0.00    +0.138 C 
ATOM     11  N   UNL     1       6.332  -1.158  82.919  0.00  0.00    -0.328 NA
ATOM     12  C   UNL     1       6.735  -0.338  81.919  0.00  0.00    +0.192 C 
ATOM     13  N   UNL     1       6.787   1.018  82.094  0.00  0.00    -0.216 N 
ATOM     14  C   UNL     1       7.192   1.859  81.111  0.00  0.00    +0.192 C 
ATOM     15  C   UNL     1       7.571   1.370  79.852  0.00  0.00    +0.045 C 
ATOM     16  C   UNL     1       7.520  -0.019  79.634  0.00  0.00    -0.007 C 
ATOM     17  N   UNL     1       7.165   3.147  81.502  0.00  0.00    -0.385 NA
ATOM     18  C   UNL     1       6.723   3.122  82.766  0.00  0.00    +0.146 C 
ATOM     19  C   UNL     1       6.501   4.196  83.641  0.00  0.00    +0.029 C 
ATOM     20  C   UNL     1       6.017   3.914  84.936  0.00  0.00    -0.019 C 
ATOM     21  C   UNL     1       5.763   2.584  85.335  0.00  0.00    +0.053 C 
ATOM     22  C   UNL     1       5.993   1.517  84.446  0.00  0.00    -0.004 C 
ATOM     23  C   UNL     1       6.480   1.799  83.151  0.00  0.00    +0.085 C 
ATOM     24  C   UNL     1       7.104  -0.902  80.661  0.00  0.00    +0.139 C 
ENDROOT
BRANCH   4   5
ATOM      5  C   UNL     1       5.793  -3.291  83.835  0.00  0.00    +0.086 A 
ATOM      6  C   UNL     1       6.421  -3.213  85.098  0.00  0.00    +0.012 A 
ATOM      7  C   UNL     1       5.977  -4.022  86.160  0.00  0.00    +0.001 A 
ATOM      8  C   UNL     1       4.893  -4.899  85.971  0.00  0.00    +0.000 A 
ATOM      9  C   UNL     1       4.263  -4.981  84.715  0.00  0.00    +0.001 A 
ATOM     10  C   UNL     1       4.717  -4.187  83.647  0.00  0.00    +0.012 A 
ENDBRANCH   4   5
TORSDOF 1
ENDMDL
MODEL 12
REMARK VINA RESULT:      -8.1     22.806     24.420
REMARK  Name = H:\Org. chem candidate structure\str-2\Str2-3D.pdb
REMARK  1 active torsions:
REMARK  status: ('A' for Active; 'I' for Inactive)
REMARK    1  A    between atoms: _18  and  _23
REMARK                            x       y       z     vdW  Elec       q    Type
REMARK                         _______ _______ _______ _____ _____    ______ ____
ROOT
ATOM      1  C   UNL     1      -7.825   8.524  61.714  0.00  0.00    +0.063 C 
ATOM      2  C   UNL     1      -6.898   9.656  61.947  0.00  0.00    +0.111 C 
ATOM      3  N   UNL     1      -7.040  10.315  63.127  0.00  0.00    -0.348 NA
ATOM      4  C   UNL     1      -6.246  11.353  63.488  0.00  0.00    +0.138 C 
ATOM     11  N   UNL     1      -5.272  11.760  62.644  0.00  0.00    -0.328 NA
ATOM     12  C   UNL     1      -5.068  11.184  61.434  0.00  0.00    +0.192 C 
ATOM     13  N   UNL     1      -4.092  11.638  60.591  0.00  0.00    -0.216 N 
ATOM     14  C   UNL     1      -3.865  11.075  59.378  0.00  0.00    +0.192 C 
ATOM     15  C   UNL     1      -4.638   9.995  58.927  0.00  0.00    +0.045 C 
ATOM     16  C   UNL     1      -5.658   9.509  59.766  0.00  0.00    -0.007 C 
ATOM     17  N   UNL     1      -2.859  11.679  58.718  0.00  0.00    -0.385 NA
ATOM     18  C   UNL     1      -2.442  12.658  59.532  0.00  0.00    +0.146 C 
ATOM     19  C   UNL     1      -1.420  13.597  59.326  0.00  0.00    +0.029 C 
ATOM     20  C   UNL     1      -1.171  14.547  60.338  0.00  0.00    -0.019 C 
ATOM     21  C   UNL     1      -1.935  14.550  61.526  0.00  0.00    +0.053 C 
ATOM     22  C   UNL     1      -2.957  13.600  61.718  0.00  0.00    -0.004 C 
ATOM     23  C   UNL     1      -3.203  12.648  60.706  0.00  0.00    +0.085 C 
ATOM     24  C   UNL     1      -5.894  10.091  61.036  0.00  0.00    +0.139 C 
ENDROOT
BRANCH   4   5
ATOM      5  C   UNL     1      -6.422  12.009  64.716  0.00  0.00    +0.086 A 
ATOM      6  C   UNL     1      -7.215  11.427  65.730  0.00  0.00    +0.012 A 
ATOM      7  C   UNL     1      -7.403  12.097  66.953  0.00  0.00    +0.001 A 
ATOM      8  C   UNL     1      -6.786  13.342  67.175  0.00  0.00    +0.000 A 
ATOM      9  C   UNL     1      -5.994  13.926  66.169  0.00  0.00    +0.001 A 
ATOM     10  C   UNL     1      -5.820  13.268  64.939  0.00  0.00    +0.012 A 
ENDBRANCH   4   5
TORSDOF 1
ENDMDL
MODEL 13
REMARK VINA RESULT:      -8.0      3.559      5.068
REMARK  Name = H:\Org. chem candidate structure\str-2\Str2-3D.pdb
REMARK  1 active torsions:
REMARK  status: ('A' for Active; 'I' for Inactive)
REMARK    1  A    between atoms: _18  and  _23
REMARK                            x       y       z     vdW  Elec       q    Type
REMARK                         _______ _______ _______ _____ _____    ______ ____
ROOT
ATOM      1  C   UNL     1       7.384  -4.366  86.117  0.00  0.00    +0.063 C 
ATOM      2  C   UNL     1       7.197  -3.238  85.174  0.00  0.00    +0.111 C 
ATOM      3  N   UNL     1       7.143  -3.561  83.855  0.00  0.00    -0.348 NA
ATOM      4  C   UNL     1       6.950  -2.638  82.881  0.00  0.00    +0.138 C 
ATOM     11  N   UNL     1       6.810  -1.338  83.225  0.00  0.00    -0.328 NA
ATOM     12  C   UNL     1       6.875  -0.914  84.510  0.00  0.00    +0.192 C 
ATOM     13  N   UNL     1       6.757   0.412  84.824  0.00  0.00    -0.216 N 
ATOM     14  C   UNL     1       6.813   0.861  86.102  0.00  0.00    +0.192 C 
ATOM     15  C   UNL     1       7.008  -0.026  87.172  0.00  0.00    +0.045 C 
ATOM     16  C   UNL     1       7.143  -1.397  86.883  0.00  0.00    -0.007 C 
ATOM     17  N   UNL     1       6.674   2.198  86.178  0.00  0.00    -0.385 NA
ATOM     18  C   UNL     1       6.534   2.608  84.910  0.00  0.00    +0.146 C 
ATOM     19  C   UNL     1       6.364   3.914  84.423  0.00  0.00    +0.029 C 
ATOM     20  C   UNL     1       6.247   4.097  83.030  0.00  0.00    -0.019 C 
ATOM     21  C   UNL     1       6.302   2.992  82.152  0.00  0.00    +0.053 C 
ATOM     22  C   UNL     1       6.472   1.689  82.656  0.00  0.00    -0.004 C 
ATOM     23  C   UNL     1       6.585   1.506  84.051  0.00  0.00    +0.085 C 
ATOM     24  C   UNL     1       7.077  -1.870  85.550  0.00  0.00    +0.139 C 
ENDROOT
BRANCH   4   5
ATOM      5  C   UNL     1       6.899  -3.009  81.529  0.00  0.00    +0.086 A 
ATOM      6  C   UNL     1       5.723  -3.574  80.986  0.00  0.00    +0.012 A 
ATOM      7  C   UNL     1       5.683  -3.961  79.634  0.00  0.00    +0.001 A 
ATOM      8  C   UNL     1       6.809  -3.768  78.813  0.00  0.00    +0.000 A 
ATOM      9  C   UNL     1       7.983  -3.206  79.347  0.00  0.00    +0.001 A 
ATOM     10  C   UNL     1       8.032  -2.836  80.703  0.00  0.00    +0.012 A 
ENDBRANCH   4   5
TORSDOF 1
ENDMDL
MODEL 14
REMARK VINA RESULT:      -8.0     42.273     45.648
REMARK  Name = H:\Org. chem candidate structure\str-2\Str2-3D.pdb
REMARK  1 active torsions:
REMARK  status: ('A' for Active; 'I' for Inactive)
REMARK    1  A    between atoms: _18  and  _23
REMARK                            x       y       z     vdW  Elec       q    Type
REMARK                         _______ _______ _______ _____ _____    ______ ____
ROOT
ATOM      1  C   UNL     1      12.250   4.042  38.358  0.00  0.00    +0.063 C 
ATOM      2  C   UNL     1      12.150   3.228  37.123  0.00  0.00    +0.111 C 
ATOM      3  N   UNL     1      12.362   3.885  35.953  0.00  0.00    -0.348 NA
ATOM      4  C   UNL     1      12.329   3.266  34.747  0.00  0.00    +0.138 C 
ATOM     11  N   UNL     1      12.070   1.940  34.696  0.00  0.00    -0.328 NA
ATOM     12  C   UNL     1      11.820   1.203  35.805  0.00  0.00    +0.192 C 
ATOM     13  N   UNL     1      11.534  -0.131  35.718  0.00  0.00    -0.216 N 
ATOM     14  C   UNL     1      11.285  -0.891  36.813  0.00  0.00    +0.192 C 
ATOM     15  C   UNL     1      11.302  -0.331  38.100  0.00  0.00    +0.045 C 
ATOM     16  C   UNL     1      11.584   1.042  38.225  0.00  0.00    -0.007 C 
ATOM     17  N   UNL     1      11.028  -2.173  36.495  0.00  0.00    -0.385 NA
ATOM     18  C   UNL     1      11.108  -2.226  35.159  0.00  0.00    +0.146 C 
ATOM     19  C   UNL     1      10.918  -3.327  34.309  0.00  0.00    +0.029 C 
ATOM     20  C   UNL     1      11.047  -3.129  32.919  0.00  0.00    -0.019 C 
ATOM     21  C   UNL     1      11.358  -1.853  32.400  0.00  0.00    +0.053 C 
ATOM     22  C   UNL     1      11.547  -0.758  33.266  0.00  0.00    -0.004 C 
ATOM     23  C   UNL     1      11.421  -0.958  34.657  0.00  0.00    +0.085 C 
ATOM     24  C   UNL     1      11.850   1.837  37.084  0.00  0.00    +0.139 C 
ENDROOT
BRANCH   4   5
ATOM      5  C   UNL     1      12.554   3.977  33.559  0.00  0.00    +0.086 A 
ATOM      6  C   UNL     1      11.639   3.884  32.486  0.00  0.00    +0.012 A 
ATOM      7  C   UNL     1      11.878   4.586  31.290  0.00  0.00    +0.001 A 
ATOM      8  C   UNL     1      13.020   5.399  31.168  0.00  0.00    +0.000 A 
ATOM      9  C   UNL     1      13.934   5.497  32.233  0.00  0.00    +0.001 A 
ATOM     10  C   UNL     1      13.708   4.781  33.422  0.00  0.00    +0.012 A 
ENDBRANCH   4   5
TORSDOF 1
ENDMDL
MODEL 15
REMARK VINA RESULT:      -8.0     23.122     24.580
REMARK  Name = H:\Org. chem candidate structure\str-2\Str2-3D.pdb
REMARK  1 active torsions:
REMARK  status: ('A' for Active; 'I' for Inactive)
REMARK    1  A    between atoms: _18  and  _23
REMARK                            x       y       z     vdW  Elec       q    Type
REMARK                         _______ _______ _______ _____ _____    ______ ____
ROOT
ATOM      1  C   UNL     1      -7.883   8.697  62.019  0.00  0.00    +0.063 C 
ATOM      2  C   UNL     1      -6.758   9.605  61.691  0.00  0.00    +0.111 C 
ATOM      3  N   UNL     1      -6.181   9.430  60.473  0.00  0.00    -0.348 NA
ATOM      4  C   UNL     1      -5.162  10.203  60.026  0.00  0.00    +0.138 C 
ATOM     11  N   UNL     1      -4.688  11.190  60.820  0.00  0.00    -0.328 NA
ATOM     12  C   UNL     1      -5.180  11.427  62.060  0.00  0.00    +0.192 C 
ATOM     13  N   UNL     1      -4.660  12.415  62.849  0.00  0.00    -0.216 N 
ATOM     14  C   UNL     1      -5.139  12.674  64.091  0.00  0.00    +0.192 C 
ATOM     15  C   UNL     1      -6.194  11.924  64.631  0.00  0.00    +0.045 C 
ATOM     16  C   UNL     1      -6.746  10.893  63.848  0.00  0.00    -0.007 C 
ATOM     17  N   UNL     1      -4.481  13.687  64.688  0.00  0.00    -0.385 NA
ATOM     18  C   UNL     1      -3.554  14.074  63.801  0.00  0.00    +0.146 C 
ATOM     19  C   UNL     1      -2.592  15.089  63.922  0.00  0.00    +0.029 C 
ATOM     20  C   UNL     1      -1.709  15.304  62.843  0.00  0.00    -0.019 C 
ATOM     21  C   UNL     1      -1.794  14.515  61.675  0.00  0.00    +0.053 C 
ATOM     22  C   UNL     1      -2.765  13.501  61.570  0.00  0.00    -0.004 C 
ATOM     23  C   UNL     1      -3.651  13.288  62.648  0.00  0.00    +0.085 C 
ATOM     24  C   UNL     1      -6.253  10.623  62.548  0.00  0.00    +0.139 C 
ENDROOT
BRANCH   4   5
ATOM      5  C   UNL     1      -4.591   9.993  58.762  0.00  0.00    +0.086 A 
ATOM      6  C   UNL     1      -5.277   9.238  57.784  0.00  0.00    +0.012 A 
ATOM      7  C   UNL     1      -4.692   9.015  56.524  0.00  0.00    +0.001 A 
ATOM      8  C   UNL     1      -3.430   9.559  56.227  0.00  0.00    +0.000 A 
ATOM      9  C   UNL     1      -2.741  10.313  57.196  0.00  0.00    +0.001 A 
ATOM     10  C   UNL     1      -3.315  10.521  58.463  0.00  0.00    +0.012 A 
ENDBRANCH   4   5
TORSDOF 1
ENDMDL
MODEL 16
REMARK VINA RESULT:      -7.9      2.476      7.041
REMARK  Name = H:\Org. chem candidate structure\str-2\Str2-3D.pdb
REMARK  1 active torsions:
REMARK  status: ('A' for Active; 'I' for Inactive)
REMARK    1  A    between atoms: _18  and  _23
REMARK                            x       y       z     vdW  Elec       q    Type
REMARK                         _______ _______ _______ _____ _____    ______ ____
ROOT
ATOM      1  C   UNL     1       7.908   4.282  80.882  0.00  0.00    +0.063 C 
ATOM      2  C   UNL     1       7.396   3.102  81.620  0.00  0.00    +0.111 C 
ATOM      3  N   UNL     1       7.133   3.288  82.940  0.00  0.00    -0.348 NA
ATOM      4  C   UNL     1       6.637   2.308  83.734  0.00  0.00    +0.138 C 
ATOM     11  N   UNL     1       6.394   1.089  83.201  0.00  0.00    -0.328 NA
ATOM     12  C   UNL     1       6.648   0.799  81.902  0.00  0.00    +0.192 C 
ATOM     13  N   UNL     1       6.417  -0.452  81.399  0.00  0.00    -0.216 N 
ATOM     14  C   UNL     1       6.658  -0.765  80.103  0.00  0.00    +0.192 C 
ATOM     15  C   UNL     1       7.170   0.190  79.211  0.00  0.00    +0.045 C 
ATOM     16  C   UNL     1       7.427   1.484  79.698  0.00  0.00    -0.007 C 
ATOM     17  N   UNL     1       6.360  -2.049  79.826  0.00  0.00    -0.385 NA
ATOM     18  C   UNL     1       5.926  -2.565  80.984  0.00  0.00    +0.146 C 
ATOM     19  C   UNL     1       5.495  -3.873  81.256  0.00  0.00    +0.029 C 
ATOM     20  C   UNL     1       5.090  -4.183  82.571  0.00  0.00    -0.019 C 
ATOM     21  C   UNL     1       5.121  -3.199  83.584  0.00  0.00    +0.053 C 
ATOM     22  C   UNL     1       5.556  -1.892  83.295  0.00  0.00    -0.004 C 
ATOM     23  C   UNL     1       5.958  -1.581  81.978  0.00  0.00    +0.085 C 
ATOM     24  C   UNL     1       7.171   1.818  81.050  0.00  0.00    +0.139 C 
ENDROOT
BRANCH   4   5
ATOM      5  C   UNL     1       6.377   2.537  85.094  0.00  0.00    +0.086 A 
ATOM      6  C   UNL     1       6.055   3.834  85.551  0.00  0.00    +0.012 A 
ATOM      7  C   UNL     1       5.813   4.062  86.919  0.00  0.00    +0.001 A 
ATOM      8  C   UNL     1       5.873   2.993  87.832  0.00  0.00    +0.000 A 
ATOM      9  C   UNL     1       6.192   1.699  87.382  0.00  0.00    +0.001 A 
ATOM     10  C   UNL     1       6.454   1.472  86.019  0.00  0.00    +0.012 A 
ENDBRANCH   4   5
TORSDOF 1
ENDMDL
MODEL 17
REMARK VINA RESULT:      -7.9      2.977      7.911
REMARK  Name = H:\Org. chem candidate structure\str-2\Str2-3D.pdb
REMARK  1 active torsions:
REMARK  status: ('A' for Active; 'I' for Inactive)
REMARK    1  A    between atoms: _18  and  _23
REMARK                            x       y       z     vdW  Elec       q    Type
REMARK                         _______ _______ _______ _____ _____    ______ ____
ROOT
ATOM      1  C   UNL     1       4.051  -4.402  78.612  0.00  0.00    +0.063 C 
ATOM      2  C   UNL     1       4.686  -3.664  79.730  0.00  0.00    +0.111 C 
ATOM      3  N   UNL     1       5.211  -2.449  79.425  0.00  0.00    -0.348 NA
ATOM      4  C   UNL     1       5.799  -1.650  80.349  0.00  0.00    +0.138 C 
ATOM     11  N   UNL     1       5.876  -2.074  81.631  0.00  0.00    -0.328 NA
ATOM     12  C   UNL     1       5.404  -3.280  82.028  0.00  0.00    +0.192 C 
ATOM     13  N   UNL     1       5.522  -3.692  83.327  0.00  0.00    -0.216 N 
ATOM     14  C   UNL     1       5.054  -4.892  83.751  0.00  0.00    +0.192 C 
ATOM     15  C   UNL     1       4.430  -5.779  82.861  0.00  0.00    +0.045 C 
ATOM     16  C   UNL     1       4.301  -5.391  81.515  0.00  0.00    -0.007 C 
ATOM     17  N   UNL     1       5.276  -5.089  85.064  0.00  0.00    -0.385 NA
ATOM     18  C   UNL     1       5.910  -3.986  85.482  0.00  0.00    +0.146 C 
ATOM     19  C   UNL     1       6.380  -3.676  86.768  0.00  0.00    +0.029 C 
ATOM     20  C   UNL     1       7.033  -2.441  86.962  0.00  0.00    -0.019 C 
ATOM     21  C   UNL     1       7.209  -1.544  85.886  0.00  0.00    +0.053 C 
ATOM     22  C   UNL     1       6.730  -1.869  84.602  0.00  0.00    -0.004 C 
ATOM     23  C   UNL     1       6.074  -3.103  84.410  0.00  0.00    +0.085 C 
ATOM     24  C   UNL     1       4.783  -4.135  81.070  0.00  0.00    +0.139 C 
ENDROOT
BRANCH   4   5
ATOM      5  C   UNL     1       6.330  -0.400  79.996  0.00  0.00    +0.086 A 
ATOM      6  C   UNL     1       7.709  -0.139  80.154  0.00  0.00    +0.012 A 
ATOM      7  C   UNL     1       8.234   1.122  79.815  0.00  0.00    +0.001 A 
ATOM      8  C   UNL     1       7.388   2.120  79.300  0.00  0.00    +0.000 A 
ATOM      9  C   UNL     1       6.013   1.867  79.140  0.00  0.00    +0.001 A 
ATOM     10  C   UNL     1       5.483   0.614  79.496  0.00  0.00    +0.012 A 
ENDBRANCH   4   5
TORSDOF 1
ENDMDL
MODEL 18
REMARK VINA RESULT:      -7.8     22.642     24.521
REMARK  Name = H:\Org. chem candidate structure\str-2\Str2-3D.pdb
REMARK  1 active torsions:
REMARK  status: ('A' for Active; 'I' for Inactive)
REMARK    1  A    between atoms: _18  and  _23
REMARK                            x       y       z     vdW  Elec       q    Type
REMARK                         _______ _______ _______ _____ _____    ______ ____
ROOT
ATOM      1  C   UNL     1      -6.780  11.144  65.458  0.00  0.00    +0.063 C 
ATOM      2  C   UNL     1      -5.934  11.389  64.265  0.00  0.00    +0.111 C 
ATOM      3  N   UNL     1      -5.051  12.417  64.358  0.00  0.00    -0.348 NA
ATOM      4  C   UNL     1      -4.195  12.741  63.357  0.00  0.00    +0.138 C 
ATOM     11  N   UNL     1      -4.217  12.020  62.214  0.00  0.00    -0.328 NA
ATOM     12  C   UNL     1      -5.078  10.993  62.017  0.00  0.00    +0.192 C 
ATOM     13  N   UNL     1      -5.094  10.300  60.838  0.00  0.00    -0.216 N 
ATOM     14  C   UNL     1      -5.942   9.266  60.619  0.00  0.00    +0.192 C 
ATOM     15  C   UNL     1      -6.859   8.862  61.601  0.00  0.00    +0.045 C 
ATOM     16  C   UNL     1      -6.876   9.559  62.823  0.00  0.00    -0.007 C 
ATOM     17  N   UNL     1      -5.786   8.731  59.393  0.00  0.00    -0.385 NA
ATOM     18  C   UNL     1      -4.816   9.453  58.816  0.00  0.00    +0.146 C 
ATOM     19  C   UNL     1      -4.268   9.322  57.530  0.00  0.00    +0.029 C 
ATOM     20  C   UNL     1      -3.251  10.218  57.143  0.00  0.00    -0.019 C 
ATOM     21  C   UNL     1      -2.799  11.221  58.029  0.00  0.00    +0.053 C 
ATOM     22  C   UNL     1      -3.358  11.339  59.316  0.00  0.00    -0.004 C 
ATOM     23  C   UNL     1      -4.374  10.439  59.704  0.00  0.00    +0.085 C 
ATOM     24  C   UNL     1      -5.986  10.637  63.058  0.00  0.00    +0.139 C 
ENDROOT
BRANCH   4   5
ATOM      5  C   UNL     1      -3.297  13.811  63.489  0.00  0.00    +0.086 A 
ATOM      6  C   UNL     1      -3.276  14.587  64.669  0.00  0.00    +0.012 A 
ATOM      7  C   UNL     1      -2.385  15.669  64.789  0.00  0.00    +0.001 A 
ATOM      8  C   UNL     1      -1.498  15.970  63.739  0.00  0.00    +0.000 A 
ATOM      9  C   UNL     1      -1.513  15.201  62.561  0.00  0.00    +0.001 A 
ATOM     10  C   UNL     1      -2.416  14.131  62.431  0.00  0.00    +0.012 A 
ENDBRANCH   4   5
TORSDOF 1
ENDMDL
MODEL 19
REMARK VINA RESULT:      -7.7     22.793     24.374
REMARK  Name = H:\Org. chem candidate structure\str-2\Str2-3D.pdb
REMARK  1 active torsions:
REMARK  status: ('A' for Active; 'I' for Inactive)
REMARK    1  A    between atoms: _18  and  _23
REMARK                            x       y       z     vdW  Elec       q    Type
REMARK                         _______ _______ _______ _____ _____    ______ ____
ROOT
ATOM      1  C   UNL     1      -1.292  13.946  63.626  0.00  0.00    +0.063 C 
ATOM      2  C   UNL     1      -2.566  13.317  63.203  0.00  0.00    +0.111 C 
ATOM      3  N   UNL     1      -2.500  12.500  62.119  0.00  0.00    -0.348 NA
ATOM      4  C   UNL     1      -3.577  11.836  61.634  0.00  0.00    +0.138 C 
ATOM     11  N   UNL     1      -4.774  11.989  62.245  0.00  0.00    -0.328 NA
ATOM     12  C   UNL     1      -4.946  12.801  63.316  0.00  0.00    +0.192 C 
ATOM     13  N   UNL     1      -6.175  12.957  63.895  0.00  0.00    -0.216 N 
ATOM     14  C   UNL     1      -6.372  13.759  64.970  0.00  0.00    +0.192 C 
ATOM     15  C   UNL     1      -5.311  14.481  65.537  0.00  0.00    +0.045 C 
ATOM     16  C   UNL     1      -4.034  14.351  64.960  0.00  0.00    -0.007 C 
ATOM     17  N   UNL     1      -7.656  13.762  65.373  0.00  0.00    -0.385 NA
ATOM     18  C   UNL     1      -8.293  12.945  64.524  0.00  0.00    +0.146 C 
ATOM     19  C   UNL     1      -9.653  12.599  64.490  0.00  0.00    +0.029 C 
ATOM     20  C   UNL     1     -10.093  11.716  63.481  0.00  0.00    -0.019 C 
ATOM     21  C   UNL     1      -9.185  11.198  62.532  0.00  0.00    +0.053 C 
ATOM     22  C   UNL     1      -7.823  11.554  62.581  0.00  0.00    -0.004 C 
ATOM     23  C   UNL     1      -7.383  12.435  63.592  0.00  0.00    +0.085 C 
ATOM     24  C   UNL     1      -3.823  13.509  63.841  0.00  0.00    +0.139 C 
ENDROOT
BRANCH   4   5
ATOM      5  C   UNL     1      -3.471  11.000  60.512  0.00  0.00    +0.086 A 
ATOM      6  C   UNL     1      -3.270  11.552  59.227  0.00  0.00    +0.012 A 
ATOM      7  C   UNL     1      -3.182  10.710  58.102  0.00  0.00    +0.001 A 
ATOM      8  C   UNL     1      -3.274   9.315  58.258  0.00  0.00    +0.000 A 
ATOM      9  C   UNL     1      -3.473   8.760  59.536  0.00  0.00    +0.001 A 
ATOM     10  C   UNL     1      -3.581   9.599  60.658  0.00  0.00    +0.012 A 
ENDBRANCH   4   5
TORSDOF 1
ENDMDL
MODEL 20
REMARK VINA RESULT:      -7.7     22.751     23.518
REMARK  Name = H:\Org. chem candidate structure\str-2\Str2-3D.pdb
REMARK  1 active torsions:
REMARK  status: ('A' for Active; 'I' for Inactive)
REMARK    1  A    between atoms: _18  and  _23
REMARK                            x       y       z     vdW  Elec       q    Type
REMARK                         _______ _______ _______ _____ _____    ______ ____
ROOT
ATOM      1  C   UNL     1      -3.935  15.988  66.580  0.00  0.00    +0.063 C 
ATOM      2  C   UNL     1      -4.517  14.839  65.845  0.00  0.00    +0.111 C 
ATOM      3  N   UNL     1      -5.708  14.375  66.305  0.00  0.00    -0.348 NA
ATOM      4  C   UNL     1      -6.371  13.348  65.718  0.00  0.00    +0.138 C 
ATOM     11  N   UNL     1      -5.830  12.751  64.633  0.00  0.00    -0.328 NA
ATOM     12  C   UNL     1      -4.635  13.125  64.116  0.00  0.00    +0.192 C 
ATOM     13  N   UNL     1      -4.101  12.482  63.033  0.00  0.00    -0.216 N 
ATOM     14  C   UNL     1      -2.910  12.841  62.494  0.00  0.00    +0.192 C 
ATOM     15  C   UNL     1      -2.159  13.895  63.037  0.00  0.00    +0.045 C 
ATOM     16  C   UNL     1      -2.675  14.571  64.158  0.00  0.00    -0.007 C 
ATOM     17  N   UNL     1      -2.578  12.076  61.437  0.00  0.00    -0.385 NA
ATOM     18  C   UNL     1      -3.585  11.201  61.308  0.00  0.00    +0.146 C 
ATOM     19  C   UNL     1      -3.739  10.171  60.367  0.00  0.00    +0.029 C 
ATOM     20  C   UNL     1      -4.895   9.366  60.442  0.00  0.00    -0.019 C 
ATOM     21  C   UNL     1      -5.868   9.594  61.439  0.00  0.00    +0.053 C 
ATOM     22  C   UNL     1      -5.699  10.633  62.375  0.00  0.00    -0.004 C 
ATOM     23  C   UNL     1      -4.544  11.440  62.299  0.00  0.00    +0.085 C 
ATOM     24  C   UNL     1      -3.922  14.204  64.720  0.00  0.00    +0.139 C 
ENDROOT
BRANCH   4   5
ATOM      5  C   UNL     1      -7.601  12.896  66.221  0.00  0.00    +0.086 A 
ATOM      6  C   UNL     1      -7.849  11.512  66.362  0.00  0.00    +0.012 A 
ATOM      7  C   UNL     1      -9.091  11.063  66.851  0.00  0.00    +0.001 A 
ATOM      8  C   UNL     1     -10.080  11.993  67.218  0.00  0.00    +0.000 A 
ATOM      9  C   UNL     1      -9.838  13.372  67.080  0.00  0.00    +0.001 A 
ATOM     10  C   UNL     1      -8.606  13.823  66.574  0.00  0.00    +0.012 A 
ENDBRANCH   4   5
TORSDOF 1
ENDMDL
